version 2
run Test3-0-20130108-15:14:15-13364
attr configname Test3
attr datetime 20130108-15:14:15
attr experiment Test3
attr inifile default_indi.ini
attr iterationvars ""
attr iterationvars2 $repetition=0
attr measurement ""
attr network wsn.networks.BMacTest
attr processid 13364
attr repetition 0
attr replication #0
attr resultdir results
attr runnumber 0
attr seedset 0

statistic BMacTest.simHelper 	numNeighbors
field count 251
field mean 10.01593625498
field stddev 5.339639034609
field sum 2514
field sqrsum 32308
field min 0
field max 22
attr type  int
bin	-INF	0
bin	-10	0
bin	-9	0
bin	-8	0
bin	-7	0
bin	-6	0
bin	-5	0
bin	-4	0
bin	-3	0
bin	-2	0
bin	-1	0
bin	0	2
bin	1	3
bin	2	9
bin	3	13
bin	4	18
bin	5	12
bin	6	22
bin	7	13
bin	8	20
bin	9	21
bin	10	12
bin	11	14
bin	12	9
bin	13	6
bin	14	10
bin	15	14
bin	16	18
bin	17	12
bin	18	6
bin	19	7
bin	20	6
bin	21	1
bin	22	3
bin	23	0
bin	24	0
bin	25	0
bin	26	0
bin	27	0
bin	28	0
bin	29	0
bin	30	0
bin	31	0
bin	32	0
bin	33	0
statistic BMacTest.simHelper 	destNeighbors
field count 2514
field mean 23.641209228321
field stddev 10.047130692233
field sum 59434
field sqrsum 1658766
field min 0
field max 53
attr type  int
bin	-INF	0
bin	-17	0
bin	-16	0
bin	-15	0
bin	-14	0
bin	-13	0
bin	-12	0
bin	-11	0
bin	-10	0
bin	-9	0
bin	-8	0
bin	-7	0
bin	-6	0
bin	-5	0
bin	-4	0
bin	-3	0
bin	-2	0
bin	-1	0
bin	0	3
bin	1	1
bin	2	12
bin	3	16
bin	4	13
bin	5	29
bin	6	27
bin	7	32
bin	8	34
bin	9	52
bin	10	37
bin	11	55
bin	12	48
bin	13	65
bin	14	72
bin	15	74
bin	16	70
bin	17	78
bin	18	80
bin	19	80
bin	20	93
bin	21	106
bin	22	87
bin	23	102
bin	24	99
bin	25	97
bin	26	81
bin	27	100
bin	28	74
bin	29	73
bin	30	88
bin	31	61
bin	32	78
bin	33	53
bin	34	61
bin	35	62
bin	36	39
bin	37	43
bin	38	49
bin	39	36
bin	40	35
bin	41	26
bin	42	21
bin	43	15
bin	44	6
bin	45	10
bin	46	10
bin	47	4
bin	48	9
bin	49	5
bin	50	4
bin	51	6
bin	52	2
bin	53	1
bin	54	0
bin	55	0
bin	56	0
bin	57	0
bin	58	0
bin	59	0
bin	60	0
bin	61	0
bin	62	0
bin	63	0
bin	64	0
bin	65	0
bin	66	0
bin	67	0
statistic BMacTest.simHelper 	packetsSomebody2Somebody
field count 251
field mean 15.350597609562
field stddev 11.841139710409
field sum 3853
field sqrsum 94199
field min 0
field max 48
attr type  int
bin	-INF	0
bin	-22	0
bin	-21	0
bin	-20	0
bin	-19	0
bin	-18	0
bin	-17	0
bin	-16	0
bin	-15	0
bin	-14	0
bin	-13	0
bin	-12	0
bin	-11	0
bin	-10	0
bin	-9	0
bin	-8	0
bin	-7	0
bin	-6	0
bin	-5	0
bin	-4	0
bin	-3	0
bin	-2	0
bin	-1	0
bin	0	2
bin	1	3
bin	2	9
bin	3	15
bin	4	15
bin	5	13
bin	6	13
bin	7	10
bin	8	7
bin	9	17
bin	10	13
bin	11	10
bin	12	7
bin	13	8
bin	14	8
bin	15	6
bin	16	6
bin	17	5
bin	18	4
bin	19	3
bin	20	3
bin	21	6
bin	22	4
bin	23	5
bin	24	0
bin	25	4
bin	26	6
bin	27	6
bin	28	4
bin	29	5
bin	30	2
bin	31	4
bin	32	1
bin	33	0
bin	34	5
bin	35	2
bin	36	1
bin	37	1
bin	38	2
bin	39	1
bin	40	2
bin	41	0
bin	42	3
bin	43	2
bin	44	2
bin	45	3
bin	46	0
bin	47	2
bin	48	1
bin	49	0
bin	50	0
bin	51	0
bin	52	0
bin	53	0
bin	54	0
bin	55	0
bin	56	0
bin	57	0
bin	58	0
bin	59	0
bin	60	0
bin	61	0
bin	62	0
bin	63	0
bin	64	0
bin	65	0
bin	66	0
bin	67	0
bin	68	0
bin	69	0
bin	70	0
scalar BMacTest.simHelper 	linksWhite2White 	2349
scalar BMacTest.simHelper 	linksWhite2Black 	165
scalar BMacTest.simHelper 	linksBlack2Black 	0
scalar BMacTest.optEngine 	idsBestThreshold 	1
scalar BMacTest.optEngine 	idsFalseNegatives 	96
scalar BMacTest.optEngine 	idsFalsePositives 	0
scalar BMacTest.optEngine 	idsTrueNegatives 	2422
scalar BMacTest.optEngine 	idsTruePositives 	0
scalar BMacTest.optEngine 	idsUsedMemory 	903600
attr unit  B
scalar BMacTest.optEngine 	normMemoryUsage 	0.0068392072405134
attr unit  B
scalar BMacTest.optEngine 	consumedNetworkEnergy 	124573.47516737
attr unit  mW
scalar BMacTest.optEngine 	normNetworkEnergy 	9.8437379212615e-06
attr unit  mW
scalar BMacTest.node[0].nic.ids 	notAffectedByHostState 	0
scalar BMacTest.node[0].nic.ids 	stats 	1
scalar BMacTest.node[0].nic.ids 	debug 	0
scalar BMacTest.node[0].nic.ids 	maxMonitoredNodes 	250
scalar BMacTest.node[0].nic.ids 	fwdBufferSize 	100
scalar BMacTest.node[0].nic.ids 	fwdMinPacketsReceived 	0
scalar BMacTest.node[0].nic.ids 	fwdDetectionThreshold 	0.5
scalar BMacTest.node[0].nic.ids 	memIDSEntry 	8
scalar BMacTest.node[0].nic.ids 	memBufferEntry 	16
scalar BMacTest.node[0].nic.ids 	maxDistance 	999999
scalar BMacTest.node[0].nic.ids 	fwdPacketTimeout 	999999
scalar BMacTest.node[0].nic.ids 	neighbour42PacketsReceived 	0
scalar BMacTest.node[0].nic.ids 	neighbour42PacketsForwarded 	0
scalar BMacTest.node[0].nic.ids 	neighbour42IntentionalPacketDropping 	0
scalar BMacTest.node[0].nic.ids 	neighbour95PacketsReceived 	0
scalar BMacTest.node[0].nic.ids 	neighbour95PacketsForwarded 	0
scalar BMacTest.node[0].nic.ids 	neighbour95IntentionalPacketDropping 	0
scalar BMacTest.node[0].nic.ids 	neighbour243PacketsReceived 	0
scalar BMacTest.node[0].nic.ids 	neighbour243PacketsForwarded 	0
scalar BMacTest.node[0].nic.ids 	neighbour243IntentionalPacketDropping 	0
scalar BMacTest.node[0].nic.ids 	data_packets_intercepted 	3
scalar BMacTest.node[0].nic.ids 	data_packets_me_to_somebody 	0
scalar BMacTest.node[0].nic.ids 	data_packets_somebody_to_me 	0
scalar BMacTest.node[0].nic.ids 	data_packets_somebody_to_somebody 	3
scalar BMacTest.node[0].netwl 	nbPacketsForwarded 	0
scalar BMacTest.node[0].netwl 	nbPacketsReceived 	0
scalar BMacTest.node[0].netwl 	nbPacketsSent 	0
scalar BMacTest.node[0].netwl 	nbPacketsDropped 	0
scalar BMacTest.node[1].nic.ids 	notAffectedByHostState 	0
scalar BMacTest.node[1].nic.ids 	stats 	1
scalar BMacTest.node[1].nic.ids 	debug 	0
scalar BMacTest.node[1].nic.ids 	maxMonitoredNodes 	250
scalar BMacTest.node[1].nic.ids 	fwdBufferSize 	100
scalar BMacTest.node[1].nic.ids 	fwdMinPacketsReceived 	0
scalar BMacTest.node[1].nic.ids 	fwdDetectionThreshold 	0.5
scalar BMacTest.node[1].nic.ids 	memIDSEntry 	8
scalar BMacTest.node[1].nic.ids 	memBufferEntry 	16
scalar BMacTest.node[1].nic.ids 	maxDistance 	999999
scalar BMacTest.node[1].nic.ids 	fwdPacketTimeout 	999999
scalar BMacTest.node[1].nic.ids 	neighbour8PacketsReceived 	5
scalar BMacTest.node[1].nic.ids 	neighbour8PacketsForwarded 	3
scalar BMacTest.node[1].nic.ids 	neighbour8IntentionalPacketDropping 	0
scalar BMacTest.node[1].nic.ids 	neighbour32PacketsReceived 	0
scalar BMacTest.node[1].nic.ids 	neighbour32PacketsForwarded 	0
scalar BMacTest.node[1].nic.ids 	neighbour32IntentionalPacketDropping 	0
scalar BMacTest.node[1].nic.ids 	neighbour40PacketsReceived 	0
scalar BMacTest.node[1].nic.ids 	neighbour40PacketsForwarded 	0
scalar BMacTest.node[1].nic.ids 	neighbour40IntentionalPacketDropping 	0
scalar BMacTest.node[1].nic.ids 	neighbour49PacketsReceived 	0
scalar BMacTest.node[1].nic.ids 	neighbour49PacketsForwarded 	0
scalar BMacTest.node[1].nic.ids 	neighbour49IntentionalPacketDropping 	0
scalar BMacTest.node[1].nic.ids 	neighbour54PacketsReceived 	5
scalar BMacTest.node[1].nic.ids 	neighbour54PacketsForwarded 	5
scalar BMacTest.node[1].nic.ids 	neighbour54IntentionalPacketDropping 	0
scalar BMacTest.node[1].nic.ids 	neighbour55PacketsReceived 	0
scalar BMacTest.node[1].nic.ids 	neighbour55PacketsForwarded 	0
scalar BMacTest.node[1].nic.ids 	neighbour55IntentionalPacketDropping 	0
scalar BMacTest.node[1].nic.ids 	neighbour76PacketsReceived 	1
scalar BMacTest.node[1].nic.ids 	neighbour76PacketsForwarded 	1
scalar BMacTest.node[1].nic.ids 	neighbour76IntentionalPacketDropping 	0
scalar BMacTest.node[1].nic.ids 	neighbour82PacketsReceived 	0
scalar BMacTest.node[1].nic.ids 	neighbour82PacketsForwarded 	0
scalar BMacTest.node[1].nic.ids 	neighbour82IntentionalPacketDropping 	0
scalar BMacTest.node[1].nic.ids 	neighbour87PacketsReceived 	1
scalar BMacTest.node[1].nic.ids 	neighbour87PacketsForwarded 	0
scalar BMacTest.node[1].nic.ids 	neighbour87IntentionalPacketDropping 	0
scalar BMacTest.node[1].nic.ids 	neighbour90PacketsReceived 	4
scalar BMacTest.node[1].nic.ids 	neighbour90PacketsForwarded 	3
scalar BMacTest.node[1].nic.ids 	neighbour90IntentionalPacketDropping 	0
scalar BMacTest.node[1].nic.ids 	neighbour105PacketsReceived 	1
scalar BMacTest.node[1].nic.ids 	neighbour105PacketsForwarded 	0
scalar BMacTest.node[1].nic.ids 	neighbour105IntentionalPacketDropping 	0
scalar BMacTest.node[1].nic.ids 	neighbour108PacketsReceived 	6
scalar BMacTest.node[1].nic.ids 	neighbour108PacketsForwarded 	6
scalar BMacTest.node[1].nic.ids 	neighbour108IntentionalPacketDropping 	0
scalar BMacTest.node[1].nic.ids 	neighbour113PacketsReceived 	0
scalar BMacTest.node[1].nic.ids 	neighbour113PacketsForwarded 	0
scalar BMacTest.node[1].nic.ids 	neighbour113IntentionalPacketDropping 	0
scalar BMacTest.node[1].nic.ids 	neighbour157PacketsReceived 	0
scalar BMacTest.node[1].nic.ids 	neighbour157PacketsForwarded 	0
scalar BMacTest.node[1].nic.ids 	neighbour157IntentionalPacketDropping 	0
scalar BMacTest.node[1].nic.ids 	neighbour176PacketsReceived 	0
scalar BMacTest.node[1].nic.ids 	neighbour176PacketsForwarded 	0
scalar BMacTest.node[1].nic.ids 	neighbour176IntentionalPacketDropping 	0.5
scalar BMacTest.node[1].nic.ids 	neighbour185PacketsReceived 	1
scalar BMacTest.node[1].nic.ids 	neighbour185PacketsForwarded 	1
scalar BMacTest.node[1].nic.ids 	neighbour185IntentionalPacketDropping 	0
scalar BMacTest.node[1].nic.ids 	neighbour190PacketsReceived 	0
scalar BMacTest.node[1].nic.ids 	neighbour190PacketsForwarded 	0
scalar BMacTest.node[1].nic.ids 	neighbour190IntentionalPacketDropping 	0
scalar BMacTest.node[1].nic.ids 	neighbour201PacketsReceived 	0
scalar BMacTest.node[1].nic.ids 	neighbour201PacketsForwarded 	0
scalar BMacTest.node[1].nic.ids 	neighbour201IntentionalPacketDropping 	0
scalar BMacTest.node[1].nic.ids 	data_packets_intercepted 	44
scalar BMacTest.node[1].nic.ids 	data_packets_me_to_somebody 	1
scalar BMacTest.node[1].nic.ids 	data_packets_somebody_to_me 	0
scalar BMacTest.node[1].nic.ids 	data_packets_somebody_to_somebody 	43
scalar BMacTest.node[1].netwl 	nbPacketsForwarded 	0
scalar BMacTest.node[1].netwl 	nbPacketsReceived 	0
scalar BMacTest.node[1].netwl 	nbPacketsSent 	1
scalar BMacTest.node[1].netwl 	nbPacketsDropped 	0
scalar BMacTest.node[2].nic.ids 	notAffectedByHostState 	0
scalar BMacTest.node[2].nic.ids 	stats 	1
scalar BMacTest.node[2].nic.ids 	debug 	0
scalar BMacTest.node[2].nic.ids 	maxMonitoredNodes 	250
scalar BMacTest.node[2].nic.ids 	fwdBufferSize 	100
scalar BMacTest.node[2].nic.ids 	fwdMinPacketsReceived 	0
scalar BMacTest.node[2].nic.ids 	fwdDetectionThreshold 	0.5
scalar BMacTest.node[2].nic.ids 	memIDSEntry 	8
scalar BMacTest.node[2].nic.ids 	memBufferEntry 	16
scalar BMacTest.node[2].nic.ids 	maxDistance 	999999
scalar BMacTest.node[2].nic.ids 	fwdPacketTimeout 	999999
scalar BMacTest.node[2].nic.ids 	neighbour16PacketsReceived 	0
scalar BMacTest.node[2].nic.ids 	neighbour16PacketsForwarded 	0
scalar BMacTest.node[2].nic.ids 	neighbour16IntentionalPacketDropping 	0
scalar BMacTest.node[2].nic.ids 	neighbour71PacketsReceived 	1
scalar BMacTest.node[2].nic.ids 	neighbour71PacketsForwarded 	1
scalar BMacTest.node[2].nic.ids 	neighbour71IntentionalPacketDropping 	0
scalar BMacTest.node[2].nic.ids 	data_packets_intercepted 	2
scalar BMacTest.node[2].nic.ids 	data_packets_me_to_somebody 	0
scalar BMacTest.node[2].nic.ids 	data_packets_somebody_to_me 	0
scalar BMacTest.node[2].nic.ids 	data_packets_somebody_to_somebody 	2
scalar BMacTest.node[2].netwl 	nbPacketsForwarded 	0
scalar BMacTest.node[2].netwl 	nbPacketsReceived 	0
scalar BMacTest.node[2].netwl 	nbPacketsSent 	0
scalar BMacTest.node[2].netwl 	nbPacketsDropped 	0
scalar BMacTest.node[3].nic.ids 	notAffectedByHostState 	0
scalar BMacTest.node[3].nic.ids 	stats 	1
scalar BMacTest.node[3].nic.ids 	debug 	0
scalar BMacTest.node[3].nic.ids 	maxMonitoredNodes 	250
scalar BMacTest.node[3].nic.ids 	fwdBufferSize 	100
scalar BMacTest.node[3].nic.ids 	fwdMinPacketsReceived 	0
scalar BMacTest.node[3].nic.ids 	fwdDetectionThreshold 	0.5
scalar BMacTest.node[3].nic.ids 	memIDSEntry 	8
scalar BMacTest.node[3].nic.ids 	memBufferEntry 	16
scalar BMacTest.node[3].nic.ids 	maxDistance 	999999
scalar BMacTest.node[3].nic.ids 	fwdPacketTimeout 	999999
scalar BMacTest.node[3].nic.ids 	neighbour56PacketsReceived 	0
scalar BMacTest.node[3].nic.ids 	neighbour56PacketsForwarded 	0
scalar BMacTest.node[3].nic.ids 	neighbour56IntentionalPacketDropping 	0
scalar BMacTest.node[3].nic.ids 	neighbour73PacketsReceived 	0
scalar BMacTest.node[3].nic.ids 	neighbour73PacketsForwarded 	0
scalar BMacTest.node[3].nic.ids 	neighbour73IntentionalPacketDropping 	0
scalar BMacTest.node[3].nic.ids 	neighbour203PacketsReceived 	0
scalar BMacTest.node[3].nic.ids 	neighbour203PacketsForwarded 	0
scalar BMacTest.node[3].nic.ids 	neighbour203IntentionalPacketDropping 	0
scalar BMacTest.node[3].nic.ids 	data_packets_intercepted 	3
scalar BMacTest.node[3].nic.ids 	data_packets_me_to_somebody 	0
scalar BMacTest.node[3].nic.ids 	data_packets_somebody_to_me 	0
scalar BMacTest.node[3].nic.ids 	data_packets_somebody_to_somebody 	3
scalar BMacTest.node[3].netwl 	nbPacketsForwarded 	0
scalar BMacTest.node[3].netwl 	nbPacketsReceived 	0
scalar BMacTest.node[3].netwl 	nbPacketsSent 	0
scalar BMacTest.node[3].netwl 	nbPacketsDropped 	0
scalar BMacTest.node[4].nic.ids 	notAffectedByHostState 	0
scalar BMacTest.node[4].nic.ids 	stats 	1
scalar BMacTest.node[4].nic.ids 	debug 	0
scalar BMacTest.node[4].nic.ids 	maxMonitoredNodes 	250
scalar BMacTest.node[4].nic.ids 	fwdBufferSize 	100
scalar BMacTest.node[4].nic.ids 	fwdMinPacketsReceived 	0
scalar BMacTest.node[4].nic.ids 	fwdDetectionThreshold 	0.5
scalar BMacTest.node[4].nic.ids 	memIDSEntry 	8
scalar BMacTest.node[4].nic.ids 	memBufferEntry 	16
scalar BMacTest.node[4].nic.ids 	maxDistance 	999999
scalar BMacTest.node[4].nic.ids 	fwdPacketTimeout 	999999
scalar BMacTest.node[4].nic.ids 	neighbour17PacketsReceived 	1
scalar BMacTest.node[4].nic.ids 	neighbour17PacketsForwarded 	0
scalar BMacTest.node[4].nic.ids 	neighbour17IntentionalPacketDropping 	0
scalar BMacTest.node[4].nic.ids 	neighbour95PacketsReceived 	0
scalar BMacTest.node[4].nic.ids 	neighbour95PacketsForwarded 	0
scalar BMacTest.node[4].nic.ids 	neighbour95IntentionalPacketDropping 	0
scalar BMacTest.node[4].nic.ids 	neighbour118PacketsReceived 	0
scalar BMacTest.node[4].nic.ids 	neighbour118PacketsForwarded 	0
scalar BMacTest.node[4].nic.ids 	neighbour118IntentionalPacketDropping 	0
scalar BMacTest.node[4].nic.ids 	neighbour124PacketsReceived 	0
scalar BMacTest.node[4].nic.ids 	neighbour124PacketsForwarded 	0
scalar BMacTest.node[4].nic.ids 	neighbour124IntentionalPacketDropping 	0
scalar BMacTest.node[4].nic.ids 	neighbour212PacketsReceived 	0
scalar BMacTest.node[4].nic.ids 	neighbour212PacketsForwarded 	0
scalar BMacTest.node[4].nic.ids 	neighbour212IntentionalPacketDropping 	0
scalar BMacTest.node[4].nic.ids 	data_packets_intercepted 	4
scalar BMacTest.node[4].nic.ids 	data_packets_me_to_somebody 	0
scalar BMacTest.node[4].nic.ids 	data_packets_somebody_to_me 	0
scalar BMacTest.node[4].nic.ids 	data_packets_somebody_to_somebody 	4
scalar BMacTest.node[4].netwl 	nbPacketsForwarded 	0
scalar BMacTest.node[4].netwl 	nbPacketsReceived 	0
scalar BMacTest.node[4].netwl 	nbPacketsSent 	0
scalar BMacTest.node[4].netwl 	nbPacketsDropped 	0
scalar BMacTest.node[5].nic.ids 	notAffectedByHostState 	0
scalar BMacTest.node[5].nic.ids 	stats 	1
scalar BMacTest.node[5].nic.ids 	debug 	0
scalar BMacTest.node[5].nic.ids 	maxMonitoredNodes 	250
scalar BMacTest.node[5].nic.ids 	fwdBufferSize 	100
scalar BMacTest.node[5].nic.ids 	fwdMinPacketsReceived 	0
scalar BMacTest.node[5].nic.ids 	fwdDetectionThreshold 	0.5
scalar BMacTest.node[5].nic.ids 	memIDSEntry 	8
scalar BMacTest.node[5].nic.ids 	memBufferEntry 	16
scalar BMacTest.node[5].nic.ids 	maxDistance 	999999
scalar BMacTest.node[5].nic.ids 	fwdPacketTimeout 	999999
scalar BMacTest.node[5].nic.ids 	neighbour27PacketsReceived 	5
scalar BMacTest.node[5].nic.ids 	neighbour27PacketsForwarded 	5
scalar BMacTest.node[5].nic.ids 	neighbour27IntentionalPacketDropping 	0
scalar BMacTest.node[5].nic.ids 	neighbour37PacketsReceived 	0
scalar BMacTest.node[5].nic.ids 	neighbour37PacketsForwarded 	0
scalar BMacTest.node[5].nic.ids 	neighbour37IntentionalPacketDropping 	0
scalar BMacTest.node[5].nic.ids 	neighbour70PacketsReceived 	0
scalar BMacTest.node[5].nic.ids 	neighbour70PacketsForwarded 	0
scalar BMacTest.node[5].nic.ids 	neighbour70IntentionalPacketDropping 	0
scalar BMacTest.node[5].nic.ids 	neighbour127PacketsReceived 	0
scalar BMacTest.node[5].nic.ids 	neighbour127PacketsForwarded 	0
scalar BMacTest.node[5].nic.ids 	neighbour127IntentionalPacketDropping 	0
scalar BMacTest.node[5].nic.ids 	neighbour135PacketsReceived 	0
scalar BMacTest.node[5].nic.ids 	neighbour135PacketsForwarded 	0
scalar BMacTest.node[5].nic.ids 	neighbour135IntentionalPacketDropping 	0
scalar BMacTest.node[5].nic.ids 	neighbour137PacketsReceived 	0
scalar BMacTest.node[5].nic.ids 	neighbour137PacketsForwarded 	0
scalar BMacTest.node[5].nic.ids 	neighbour137IntentionalPacketDropping 	0
scalar BMacTest.node[5].nic.ids 	neighbour158PacketsReceived 	0
scalar BMacTest.node[5].nic.ids 	neighbour158PacketsForwarded 	0
scalar BMacTest.node[5].nic.ids 	neighbour158IntentionalPacketDropping 	0
scalar BMacTest.node[5].nic.ids 	neighbour172PacketsReceived 	0
scalar BMacTest.node[5].nic.ids 	neighbour172PacketsForwarded 	0
scalar BMacTest.node[5].nic.ids 	neighbour172IntentionalPacketDropping 	0
scalar BMacTest.node[5].nic.ids 	neighbour200PacketsReceived 	2
scalar BMacTest.node[5].nic.ids 	neighbour200PacketsForwarded 	2
scalar BMacTest.node[5].nic.ids 	neighbour200IntentionalPacketDropping 	0
scalar BMacTest.node[5].nic.ids 	neighbour210PacketsReceived 	0
scalar BMacTest.node[5].nic.ids 	neighbour210PacketsForwarded 	0
scalar BMacTest.node[5].nic.ids 	neighbour210IntentionalPacketDropping 	0
scalar BMacTest.node[5].nic.ids 	neighbour237PacketsReceived 	0
scalar BMacTest.node[5].nic.ids 	neighbour237PacketsForwarded 	0
scalar BMacTest.node[5].nic.ids 	neighbour237IntentionalPacketDropping 	0
scalar BMacTest.node[5].nic.ids 	data_packets_intercepted 	20
scalar BMacTest.node[5].nic.ids 	data_packets_me_to_somebody 	3
scalar BMacTest.node[5].nic.ids 	data_packets_somebody_to_me 	3
scalar BMacTest.node[5].nic.ids 	data_packets_somebody_to_somebody 	14
scalar BMacTest.node[5].netwl 	nbPacketsForwarded 	3
scalar BMacTest.node[5].netwl 	nbPacketsReceived 	3
scalar BMacTest.node[5].netwl 	nbPacketsSent 	0
scalar BMacTest.node[5].netwl 	nbPacketsDropped 	0
scalar BMacTest.node[6].nic.ids 	notAffectedByHostState 	0
scalar BMacTest.node[6].nic.ids 	stats 	1
scalar BMacTest.node[6].nic.ids 	debug 	0
scalar BMacTest.node[6].nic.ids 	maxMonitoredNodes 	250
scalar BMacTest.node[6].nic.ids 	fwdBufferSize 	100
scalar BMacTest.node[6].nic.ids 	fwdMinPacketsReceived 	0
scalar BMacTest.node[6].nic.ids 	fwdDetectionThreshold 	0.5
scalar BMacTest.node[6].nic.ids 	memIDSEntry 	8
scalar BMacTest.node[6].nic.ids 	memBufferEntry 	16
scalar BMacTest.node[6].nic.ids 	maxDistance 	999999
scalar BMacTest.node[6].nic.ids 	fwdPacketTimeout 	999999
scalar BMacTest.node[6].nic.ids 	neighbour28PacketsReceived 	0
scalar BMacTest.node[6].nic.ids 	neighbour28PacketsForwarded 	0
scalar BMacTest.node[6].nic.ids 	neighbour28IntentionalPacketDropping 	0
scalar BMacTest.node[6].nic.ids 	neighbour56PacketsReceived 	0
scalar BMacTest.node[6].nic.ids 	neighbour56PacketsForwarded 	0
scalar BMacTest.node[6].nic.ids 	neighbour56IntentionalPacketDropping 	0
scalar BMacTest.node[6].nic.ids 	neighbour67PacketsReceived 	0
scalar BMacTest.node[6].nic.ids 	neighbour67PacketsForwarded 	0
scalar BMacTest.node[6].nic.ids 	neighbour67IntentionalPacketDropping 	0
scalar BMacTest.node[6].nic.ids 	neighbour73PacketsReceived 	0
scalar BMacTest.node[6].nic.ids 	neighbour73PacketsForwarded 	0
scalar BMacTest.node[6].nic.ids 	neighbour73IntentionalPacketDropping 	0
scalar BMacTest.node[6].nic.ids 	neighbour81PacketsReceived 	0
scalar BMacTest.node[6].nic.ids 	neighbour81PacketsForwarded 	0
scalar BMacTest.node[6].nic.ids 	neighbour81IntentionalPacketDropping 	0
scalar BMacTest.node[6].nic.ids 	neighbour140PacketsReceived 	0
scalar BMacTest.node[6].nic.ids 	neighbour140PacketsForwarded 	0
scalar BMacTest.node[6].nic.ids 	neighbour140IntentionalPacketDropping 	0
scalar BMacTest.node[6].nic.ids 	neighbour194PacketsReceived 	1
scalar BMacTest.node[6].nic.ids 	neighbour194PacketsForwarded 	1
scalar BMacTest.node[6].nic.ids 	neighbour194IntentionalPacketDropping 	0
scalar BMacTest.node[6].nic.ids 	neighbour197PacketsReceived 	1
scalar BMacTest.node[6].nic.ids 	neighbour197PacketsForwarded 	0
scalar BMacTest.node[6].nic.ids 	neighbour197IntentionalPacketDropping 	0
scalar BMacTest.node[6].nic.ids 	neighbour237PacketsReceived 	0
scalar BMacTest.node[6].nic.ids 	neighbour237PacketsForwarded 	0
scalar BMacTest.node[6].nic.ids 	neighbour237IntentionalPacketDropping 	0
scalar BMacTest.node[6].nic.ids 	data_packets_intercepted 	10
scalar BMacTest.node[6].nic.ids 	data_packets_me_to_somebody 	1
scalar BMacTest.node[6].nic.ids 	data_packets_somebody_to_me 	1
scalar BMacTest.node[6].nic.ids 	data_packets_somebody_to_somebody 	8
scalar BMacTest.node[6].netwl 	nbPacketsForwarded 	1
scalar BMacTest.node[6].netwl 	nbPacketsReceived 	1
scalar BMacTest.node[6].netwl 	nbPacketsSent 	0
scalar BMacTest.node[6].netwl 	nbPacketsDropped 	0
scalar BMacTest.node[7].nic.ids 	notAffectedByHostState 	0
scalar BMacTest.node[7].nic.ids 	stats 	1
scalar BMacTest.node[7].nic.ids 	debug 	0
scalar BMacTest.node[7].nic.ids 	maxMonitoredNodes 	250
scalar BMacTest.node[7].nic.ids 	fwdBufferSize 	100
scalar BMacTest.node[7].nic.ids 	fwdMinPacketsReceived 	0
scalar BMacTest.node[7].nic.ids 	fwdDetectionThreshold 	0.5
scalar BMacTest.node[7].nic.ids 	memIDSEntry 	8
scalar BMacTest.node[7].nic.ids 	memBufferEntry 	16
scalar BMacTest.node[7].nic.ids 	maxDistance 	999999
scalar BMacTest.node[7].nic.ids 	fwdPacketTimeout 	999999
scalar BMacTest.node[7].nic.ids 	neighbour34PacketsReceived 	1
scalar BMacTest.node[7].nic.ids 	neighbour34PacketsForwarded 	1
scalar BMacTest.node[7].nic.ids 	neighbour34IntentionalPacketDropping 	0
scalar BMacTest.node[7].nic.ids 	neighbour138PacketsReceived 	0
scalar BMacTest.node[7].nic.ids 	neighbour138PacketsForwarded 	0
scalar BMacTest.node[7].nic.ids 	neighbour138IntentionalPacketDropping 	0
scalar BMacTest.node[7].nic.ids 	data_packets_intercepted 	2
scalar BMacTest.node[7].nic.ids 	data_packets_me_to_somebody 	0
scalar BMacTest.node[7].nic.ids 	data_packets_somebody_to_me 	0
scalar BMacTest.node[7].nic.ids 	data_packets_somebody_to_somebody 	2
scalar BMacTest.node[7].netwl 	nbPacketsForwarded 	0
scalar BMacTest.node[7].netwl 	nbPacketsReceived 	0
scalar BMacTest.node[7].netwl 	nbPacketsSent 	0
scalar BMacTest.node[7].netwl 	nbPacketsDropped 	0
scalar BMacTest.node[8].nic.ids 	notAffectedByHostState 	0
scalar BMacTest.node[8].nic.ids 	stats 	1
scalar BMacTest.node[8].nic.ids 	debug 	0
scalar BMacTest.node[8].nic.ids 	maxMonitoredNodes 	250
scalar BMacTest.node[8].nic.ids 	fwdBufferSize 	100
scalar BMacTest.node[8].nic.ids 	fwdMinPacketsReceived 	0
scalar BMacTest.node[8].nic.ids 	fwdDetectionThreshold 	0.5
scalar BMacTest.node[8].nic.ids 	memIDSEntry 	8
scalar BMacTest.node[8].nic.ids 	memBufferEntry 	16
scalar BMacTest.node[8].nic.ids 	maxDistance 	999999
scalar BMacTest.node[8].nic.ids 	fwdPacketTimeout 	999999
scalar BMacTest.node[8].nic.ids 	neighbour1PacketsReceived 	0
scalar BMacTest.node[8].nic.ids 	neighbour1PacketsForwarded 	0
scalar BMacTest.node[8].nic.ids 	neighbour1IntentionalPacketDropping 	0
scalar BMacTest.node[8].nic.ids 	neighbour19PacketsReceived 	1
scalar BMacTest.node[8].nic.ids 	neighbour19PacketsForwarded 	1
scalar BMacTest.node[8].nic.ids 	neighbour19IntentionalPacketDropping 	0
scalar BMacTest.node[8].nic.ids 	neighbour27PacketsReceived 	0
scalar BMacTest.node[8].nic.ids 	neighbour27PacketsForwarded 	0
scalar BMacTest.node[8].nic.ids 	neighbour27IntentionalPacketDropping 	0
scalar BMacTest.node[8].nic.ids 	neighbour54PacketsReceived 	4
scalar BMacTest.node[8].nic.ids 	neighbour54PacketsForwarded 	4
scalar BMacTest.node[8].nic.ids 	neighbour54IntentionalPacketDropping 	0
scalar BMacTest.node[8].nic.ids 	neighbour70PacketsReceived 	0
scalar BMacTest.node[8].nic.ids 	neighbour70PacketsForwarded 	0
scalar BMacTest.node[8].nic.ids 	neighbour70IntentionalPacketDropping 	0
scalar BMacTest.node[8].nic.ids 	neighbour87PacketsReceived 	0
scalar BMacTest.node[8].nic.ids 	neighbour87PacketsForwarded 	0
scalar BMacTest.node[8].nic.ids 	neighbour87IntentionalPacketDropping 	0
scalar BMacTest.node[8].nic.ids 	neighbour90PacketsReceived 	0
scalar BMacTest.node[8].nic.ids 	neighbour90PacketsForwarded 	0
scalar BMacTest.node[8].nic.ids 	neighbour90IntentionalPacketDropping 	0
scalar BMacTest.node[8].nic.ids 	neighbour93PacketsReceived 	0
scalar BMacTest.node[8].nic.ids 	neighbour93PacketsForwarded 	0
scalar BMacTest.node[8].nic.ids 	neighbour93IntentionalPacketDropping 	0
scalar BMacTest.node[8].nic.ids 	neighbour108PacketsReceived 	1
scalar BMacTest.node[8].nic.ids 	neighbour108PacketsForwarded 	1
scalar BMacTest.node[8].nic.ids 	neighbour108IntentionalPacketDropping 	0
scalar BMacTest.node[8].nic.ids 	neighbour113PacketsReceived 	3
scalar BMacTest.node[8].nic.ids 	neighbour113PacketsForwarded 	3
scalar BMacTest.node[8].nic.ids 	neighbour113IntentionalPacketDropping 	0
scalar BMacTest.node[8].nic.ids 	neighbour116PacketsReceived 	1
scalar BMacTest.node[8].nic.ids 	neighbour116PacketsForwarded 	1
scalar BMacTest.node[8].nic.ids 	neighbour116IntentionalPacketDropping 	0
scalar BMacTest.node[8].nic.ids 	neighbour175PacketsReceived 	0
scalar BMacTest.node[8].nic.ids 	neighbour175PacketsForwarded 	0
scalar BMacTest.node[8].nic.ids 	neighbour175IntentionalPacketDropping 	0
scalar BMacTest.node[8].nic.ids 	neighbour185PacketsReceived 	0
scalar BMacTest.node[8].nic.ids 	neighbour185PacketsForwarded 	0
scalar BMacTest.node[8].nic.ids 	neighbour185IntentionalPacketDropping 	0
scalar BMacTest.node[8].nic.ids 	neighbour206PacketsReceived 	2
scalar BMacTest.node[8].nic.ids 	neighbour206PacketsForwarded 	0
scalar BMacTest.node[8].nic.ids 	neighbour206IntentionalPacketDropping 	0.5
scalar BMacTest.node[8].nic.ids 	neighbour211PacketsReceived 	0
scalar BMacTest.node[8].nic.ids 	neighbour211PacketsForwarded 	0
scalar BMacTest.node[8].nic.ids 	neighbour211IntentionalPacketDropping 	0
scalar BMacTest.node[8].nic.ids 	neighbour239PacketsReceived 	0
scalar BMacTest.node[8].nic.ids 	neighbour239PacketsForwarded 	0
scalar BMacTest.node[8].nic.ids 	neighbour239IntentionalPacketDropping 	0
scalar BMacTest.node[8].nic.ids 	data_packets_intercepted 	58
scalar BMacTest.node[8].nic.ids 	data_packets_me_to_somebody 	8
scalar BMacTest.node[8].nic.ids 	data_packets_somebody_to_me 	8
scalar BMacTest.node[8].nic.ids 	data_packets_somebody_to_somebody 	42
scalar BMacTest.node[8].netwl 	nbPacketsForwarded 	8
scalar BMacTest.node[8].netwl 	nbPacketsReceived 	8
scalar BMacTest.node[8].netwl 	nbPacketsSent 	0
scalar BMacTest.node[8].netwl 	nbPacketsDropped 	0
scalar BMacTest.node[9].nic.ids 	notAffectedByHostState 	0
scalar BMacTest.node[9].nic.ids 	stats 	1
scalar BMacTest.node[9].nic.ids 	debug 	0
scalar BMacTest.node[9].nic.ids 	maxMonitoredNodes 	250
scalar BMacTest.node[9].nic.ids 	fwdBufferSize 	100
scalar BMacTest.node[9].nic.ids 	fwdMinPacketsReceived 	0
scalar BMacTest.node[9].nic.ids 	fwdDetectionThreshold 	0.5
scalar BMacTest.node[9].nic.ids 	memIDSEntry 	8
scalar BMacTest.node[9].nic.ids 	memBufferEntry 	16
scalar BMacTest.node[9].nic.ids 	maxDistance 	999999
scalar BMacTest.node[9].nic.ids 	fwdPacketTimeout 	999999
scalar BMacTest.node[9].nic.ids 	neighbour12PacketsReceived 	0
scalar BMacTest.node[9].nic.ids 	neighbour12PacketsForwarded 	0
scalar BMacTest.node[9].nic.ids 	neighbour12IntentionalPacketDropping 	0
scalar BMacTest.node[9].nic.ids 	neighbour19PacketsReceived 	0
scalar BMacTest.node[9].nic.ids 	neighbour19PacketsForwarded 	0
scalar BMacTest.node[9].nic.ids 	neighbour19IntentionalPacketDropping 	0
scalar BMacTest.node[9].nic.ids 	neighbour67PacketsReceived 	0
scalar BMacTest.node[9].nic.ids 	neighbour67PacketsForwarded 	0
scalar BMacTest.node[9].nic.ids 	neighbour67IntentionalPacketDropping 	0
scalar BMacTest.node[9].nic.ids 	neighbour73PacketsReceived 	0
scalar BMacTest.node[9].nic.ids 	neighbour73PacketsForwarded 	0
scalar BMacTest.node[9].nic.ids 	neighbour73IntentionalPacketDropping 	0
scalar BMacTest.node[9].nic.ids 	neighbour93PacketsReceived 	0
scalar BMacTest.node[9].nic.ids 	neighbour93PacketsForwarded 	0
scalar BMacTest.node[9].nic.ids 	neighbour93IntentionalPacketDropping 	0
scalar BMacTest.node[9].nic.ids 	neighbour116PacketsReceived 	7
scalar BMacTest.node[9].nic.ids 	neighbour116PacketsForwarded 	6
scalar BMacTest.node[9].nic.ids 	neighbour116IntentionalPacketDropping 	0
scalar BMacTest.node[9].nic.ids 	neighbour168PacketsReceived 	0
scalar BMacTest.node[9].nic.ids 	neighbour168PacketsForwarded 	0
scalar BMacTest.node[9].nic.ids 	neighbour168IntentionalPacketDropping 	0
scalar BMacTest.node[9].nic.ids 	neighbour186PacketsReceived 	0
scalar BMacTest.node[9].nic.ids 	neighbour186PacketsForwarded 	0
scalar BMacTest.node[9].nic.ids 	neighbour186IntentionalPacketDropping 	0
scalar BMacTest.node[9].nic.ids 	neighbour197PacketsReceived 	1
scalar BMacTest.node[9].nic.ids 	neighbour197PacketsForwarded 	0
scalar BMacTest.node[9].nic.ids 	neighbour197IntentionalPacketDropping 	0
scalar BMacTest.node[9].nic.ids 	neighbour224PacketsReceived 	0
scalar BMacTest.node[9].nic.ids 	neighbour224PacketsForwarded 	0
scalar BMacTest.node[9].nic.ids 	neighbour224IntentionalPacketDropping 	0
scalar BMacTest.node[9].nic.ids 	neighbour236PacketsReceived 	0
scalar BMacTest.node[9].nic.ids 	neighbour236PacketsForwarded 	0
scalar BMacTest.node[9].nic.ids 	neighbour236IntentionalPacketDropping 	0
scalar BMacTest.node[9].nic.ids 	neighbour239PacketsReceived 	0
scalar BMacTest.node[9].nic.ids 	neighbour239PacketsForwarded 	0
scalar BMacTest.node[9].nic.ids 	neighbour239IntentionalPacketDropping 	0
scalar BMacTest.node[9].nic.ids 	neighbour241PacketsReceived 	1
scalar BMacTest.node[9].nic.ids 	neighbour241PacketsForwarded 	1
scalar BMacTest.node[9].nic.ids 	neighbour241IntentionalPacketDropping 	0
scalar BMacTest.node[9].nic.ids 	data_packets_intercepted 	23
scalar BMacTest.node[9].nic.ids 	data_packets_me_to_somebody 	2
scalar BMacTest.node[9].nic.ids 	data_packets_somebody_to_me 	1
scalar BMacTest.node[9].nic.ids 	data_packets_somebody_to_somebody 	20
scalar BMacTest.node[9].netwl 	nbPacketsForwarded 	1
scalar BMacTest.node[9].netwl 	nbPacketsReceived 	1
scalar BMacTest.node[9].netwl 	nbPacketsSent 	1
scalar BMacTest.node[9].netwl 	nbPacketsDropped 	0
scalar BMacTest.node[10].nic.ids 	notAffectedByHostState 	0
scalar BMacTest.node[10].nic.ids 	stats 	1
scalar BMacTest.node[10].nic.ids 	debug 	0
scalar BMacTest.node[10].nic.ids 	maxMonitoredNodes 	250
scalar BMacTest.node[10].nic.ids 	fwdBufferSize 	100
scalar BMacTest.node[10].nic.ids 	fwdMinPacketsReceived 	0
scalar BMacTest.node[10].nic.ids 	fwdDetectionThreshold 	0.5
scalar BMacTest.node[10].nic.ids 	memIDSEntry 	8
scalar BMacTest.node[10].nic.ids 	memBufferEntry 	16
scalar BMacTest.node[10].nic.ids 	maxDistance 	999999
scalar BMacTest.node[10].nic.ids 	fwdPacketTimeout 	999999
scalar BMacTest.node[10].nic.ids 	neighbour18PacketsReceived 	0
scalar BMacTest.node[10].nic.ids 	neighbour18PacketsForwarded 	0
scalar BMacTest.node[10].nic.ids 	neighbour18IntentionalPacketDropping 	0
scalar BMacTest.node[10].nic.ids 	neighbour32PacketsReceived 	0
scalar BMacTest.node[10].nic.ids 	neighbour32PacketsForwarded 	0
scalar BMacTest.node[10].nic.ids 	neighbour32IntentionalPacketDropping 	0
scalar BMacTest.node[10].nic.ids 	neighbour40PacketsReceived 	0
scalar BMacTest.node[10].nic.ids 	neighbour40PacketsForwarded 	0
scalar BMacTest.node[10].nic.ids 	neighbour40IntentionalPacketDropping 	0
scalar BMacTest.node[10].nic.ids 	neighbour87PacketsReceived 	0
scalar BMacTest.node[10].nic.ids 	neighbour87PacketsForwarded 	0
scalar BMacTest.node[10].nic.ids 	neighbour87IntentionalPacketDropping 	0
scalar BMacTest.node[10].nic.ids 	neighbour88PacketsReceived 	0
scalar BMacTest.node[10].nic.ids 	neighbour88PacketsForwarded 	0
scalar BMacTest.node[10].nic.ids 	neighbour88IntentionalPacketDropping 	0
scalar BMacTest.node[10].nic.ids 	neighbour90PacketsReceived 	0
scalar BMacTest.node[10].nic.ids 	neighbour90PacketsForwarded 	0
scalar BMacTest.node[10].nic.ids 	neighbour90IntentionalPacketDropping 	0
scalar BMacTest.node[10].nic.ids 	neighbour106PacketsReceived 	0
scalar BMacTest.node[10].nic.ids 	neighbour106PacketsForwarded 	0
scalar BMacTest.node[10].nic.ids 	neighbour106IntentionalPacketDropping 	0
scalar BMacTest.node[10].nic.ids 	neighbour148PacketsReceived 	0
scalar BMacTest.node[10].nic.ids 	neighbour148PacketsForwarded 	0
scalar BMacTest.node[10].nic.ids 	neighbour148IntentionalPacketDropping 	0
scalar BMacTest.node[10].nic.ids 	neighbour162PacketsReceived 	0
scalar BMacTest.node[10].nic.ids 	neighbour162PacketsForwarded 	0
scalar BMacTest.node[10].nic.ids 	neighbour162IntentionalPacketDropping 	0
scalar BMacTest.node[10].nic.ids 	neighbour190PacketsReceived 	3
scalar BMacTest.node[10].nic.ids 	neighbour190PacketsForwarded 	3
scalar BMacTest.node[10].nic.ids 	neighbour190IntentionalPacketDropping 	0
scalar BMacTest.node[10].nic.ids 	neighbour205PacketsReceived 	0
scalar BMacTest.node[10].nic.ids 	neighbour205PacketsForwarded 	0
scalar BMacTest.node[10].nic.ids 	neighbour205IntentionalPacketDropping 	0
scalar BMacTest.node[10].nic.ids 	neighbour222PacketsReceived 	0
scalar BMacTest.node[10].nic.ids 	neighbour222PacketsForwarded 	0
scalar BMacTest.node[10].nic.ids 	neighbour222IntentionalPacketDropping 	0
scalar BMacTest.node[10].nic.ids 	neighbour226PacketsReceived 	0
scalar BMacTest.node[10].nic.ids 	neighbour226PacketsForwarded 	0
scalar BMacTest.node[10].nic.ids 	neighbour226IntentionalPacketDropping 	0
scalar BMacTest.node[10].nic.ids 	neighbour235PacketsReceived 	0
scalar BMacTest.node[10].nic.ids 	neighbour235PacketsForwarded 	0
scalar BMacTest.node[10].nic.ids 	neighbour235IntentionalPacketDropping 	0
scalar BMacTest.node[10].nic.ids 	data_packets_intercepted 	18
scalar BMacTest.node[10].nic.ids 	data_packets_me_to_somebody 	1
scalar BMacTest.node[10].nic.ids 	data_packets_somebody_to_me 	0
scalar BMacTest.node[10].nic.ids 	data_packets_somebody_to_somebody 	17
scalar BMacTest.node[10].netwl 	nbPacketsForwarded 	0
scalar BMacTest.node[10].netwl 	nbPacketsReceived 	0
scalar BMacTest.node[10].netwl 	nbPacketsSent 	1
scalar BMacTest.node[10].netwl 	nbPacketsDropped 	0
scalar BMacTest.node[11].nic.ids 	notAffectedByHostState 	0
scalar BMacTest.node[11].nic.ids 	stats 	1
scalar BMacTest.node[11].nic.ids 	debug 	0
scalar BMacTest.node[11].nic.ids 	maxMonitoredNodes 	250
scalar BMacTest.node[11].nic.ids 	fwdBufferSize 	100
scalar BMacTest.node[11].nic.ids 	fwdMinPacketsReceived 	0
scalar BMacTest.node[11].nic.ids 	fwdDetectionThreshold 	0.5
scalar BMacTest.node[11].nic.ids 	memIDSEntry 	8
scalar BMacTest.node[11].nic.ids 	memBufferEntry 	16
scalar BMacTest.node[11].nic.ids 	maxDistance 	999999
scalar BMacTest.node[11].nic.ids 	fwdPacketTimeout 	999999
scalar BMacTest.node[11].nic.ids 	neighbour1PacketsReceived 	0
scalar BMacTest.node[11].nic.ids 	neighbour1PacketsForwarded 	0
scalar BMacTest.node[11].nic.ids 	neighbour1IntentionalPacketDropping 	0
scalar BMacTest.node[11].nic.ids 	neighbour10PacketsReceived 	0
scalar BMacTest.node[11].nic.ids 	neighbour10PacketsForwarded 	0
scalar BMacTest.node[11].nic.ids 	neighbour10IntentionalPacketDropping 	0
scalar BMacTest.node[11].nic.ids 	neighbour32PacketsReceived 	0
scalar BMacTest.node[11].nic.ids 	neighbour32PacketsForwarded 	0
scalar BMacTest.node[11].nic.ids 	neighbour32IntentionalPacketDropping 	0
scalar BMacTest.node[11].nic.ids 	neighbour40PacketsReceived 	0
scalar BMacTest.node[11].nic.ids 	neighbour40PacketsForwarded 	0
scalar BMacTest.node[11].nic.ids 	neighbour40IntentionalPacketDropping 	0
scalar BMacTest.node[11].nic.ids 	neighbour55PacketsReceived 	0
scalar BMacTest.node[11].nic.ids 	neighbour55PacketsForwarded 	0
scalar BMacTest.node[11].nic.ids 	neighbour55IntentionalPacketDropping 	0
scalar BMacTest.node[11].nic.ids 	neighbour66PacketsReceived 	0
scalar BMacTest.node[11].nic.ids 	neighbour66PacketsForwarded 	0
scalar BMacTest.node[11].nic.ids 	neighbour66IntentionalPacketDropping 	0
scalar BMacTest.node[11].nic.ids 	neighbour76PacketsReceived 	3
scalar BMacTest.node[11].nic.ids 	neighbour76PacketsForwarded 	3
scalar BMacTest.node[11].nic.ids 	neighbour76IntentionalPacketDropping 	0
scalar BMacTest.node[11].nic.ids 	neighbour88PacketsReceived 	0
scalar BMacTest.node[11].nic.ids 	neighbour88PacketsForwarded 	0
scalar BMacTest.node[11].nic.ids 	neighbour88IntentionalPacketDropping 	0
scalar BMacTest.node[11].nic.ids 	neighbour90PacketsReceived 	5
scalar BMacTest.node[11].nic.ids 	neighbour90PacketsForwarded 	1
scalar BMacTest.node[11].nic.ids 	neighbour90IntentionalPacketDropping 	0
scalar BMacTest.node[11].nic.ids 	neighbour105PacketsReceived 	3
scalar BMacTest.node[11].nic.ids 	neighbour105PacketsForwarded 	2
scalar BMacTest.node[11].nic.ids 	neighbour105IntentionalPacketDropping 	0
scalar BMacTest.node[11].nic.ids 	neighbour106PacketsReceived 	0
scalar BMacTest.node[11].nic.ids 	neighbour106PacketsForwarded 	0
scalar BMacTest.node[11].nic.ids 	neighbour106IntentionalPacketDropping 	0
scalar BMacTest.node[11].nic.ids 	neighbour148PacketsReceived 	0
scalar BMacTest.node[11].nic.ids 	neighbour148PacketsForwarded 	0
scalar BMacTest.node[11].nic.ids 	neighbour148IntentionalPacketDropping 	0
scalar BMacTest.node[11].nic.ids 	neighbour162PacketsReceived 	0
scalar BMacTest.node[11].nic.ids 	neighbour162PacketsForwarded 	0
scalar BMacTest.node[11].nic.ids 	neighbour162IntentionalPacketDropping 	0
scalar BMacTest.node[11].nic.ids 	neighbour167PacketsReceived 	0
scalar BMacTest.node[11].nic.ids 	neighbour167PacketsForwarded 	0
scalar BMacTest.node[11].nic.ids 	neighbour167IntentionalPacketDropping 	0
scalar BMacTest.node[11].nic.ids 	neighbour176PacketsReceived 	2
scalar BMacTest.node[11].nic.ids 	neighbour176PacketsForwarded 	2
scalar BMacTest.node[11].nic.ids 	neighbour176IntentionalPacketDropping 	0.5
scalar BMacTest.node[11].nic.ids 	neighbour201PacketsReceived 	0
scalar BMacTest.node[11].nic.ids 	neighbour201PacketsForwarded 	0
scalar BMacTest.node[11].nic.ids 	neighbour201IntentionalPacketDropping 	0
scalar BMacTest.node[11].nic.ids 	neighbour238PacketsReceived 	0
scalar BMacTest.node[11].nic.ids 	neighbour238PacketsForwarded 	0
scalar BMacTest.node[11].nic.ids 	neighbour238IntentionalPacketDropping 	0
scalar BMacTest.node[11].nic.ids 	data_packets_intercepted 	26
scalar BMacTest.node[11].nic.ids 	data_packets_me_to_somebody 	0
scalar BMacTest.node[11].nic.ids 	data_packets_somebody_to_me 	0
scalar BMacTest.node[11].nic.ids 	data_packets_somebody_to_somebody 	26
scalar BMacTest.node[11].netwl 	nbPacketsForwarded 	0
scalar BMacTest.node[11].netwl 	nbPacketsReceived 	0
scalar BMacTest.node[11].netwl 	nbPacketsSent 	0
scalar BMacTest.node[11].netwl 	nbPacketsDropped 	0
scalar BMacTest.node[12].nic.ids 	notAffectedByHostState 	0
scalar BMacTest.node[12].nic.ids 	stats 	1
scalar BMacTest.node[12].nic.ids 	debug 	0
scalar BMacTest.node[12].nic.ids 	maxMonitoredNodes 	250
scalar BMacTest.node[12].nic.ids 	fwdBufferSize 	100
scalar BMacTest.node[12].nic.ids 	fwdMinPacketsReceived 	0
scalar BMacTest.node[12].nic.ids 	fwdDetectionThreshold 	0.5
scalar BMacTest.node[12].nic.ids 	memIDSEntry 	8
scalar BMacTest.node[12].nic.ids 	memBufferEntry 	16
scalar BMacTest.node[12].nic.ids 	maxDistance 	999999
scalar BMacTest.node[12].nic.ids 	fwdPacketTimeout 	999999
scalar BMacTest.node[12].nic.ids 	neighbour9PacketsReceived 	0
scalar BMacTest.node[12].nic.ids 	neighbour9PacketsForwarded 	0
scalar BMacTest.node[12].nic.ids 	neighbour9IntentionalPacketDropping 	0
scalar BMacTest.node[12].nic.ids 	neighbour46PacketsReceived 	0
scalar BMacTest.node[12].nic.ids 	neighbour46PacketsForwarded 	0
scalar BMacTest.node[12].nic.ids 	neighbour46IntentionalPacketDropping 	0
scalar BMacTest.node[12].nic.ids 	neighbour52PacketsReceived 	0
scalar BMacTest.node[12].nic.ids 	neighbour52PacketsForwarded 	0
scalar BMacTest.node[12].nic.ids 	neighbour52IntentionalPacketDropping 	0
scalar BMacTest.node[12].nic.ids 	neighbour67PacketsReceived 	0
scalar BMacTest.node[12].nic.ids 	neighbour67PacketsForwarded 	0
scalar BMacTest.node[12].nic.ids 	neighbour67IntentionalPacketDropping 	0
scalar BMacTest.node[12].nic.ids 	neighbour116PacketsReceived 	3
scalar BMacTest.node[12].nic.ids 	neighbour116PacketsForwarded 	3
scalar BMacTest.node[12].nic.ids 	neighbour116IntentionalPacketDropping 	0
scalar BMacTest.node[12].nic.ids 	neighbour122PacketsReceived 	1
scalar BMacTest.node[12].nic.ids 	neighbour122PacketsForwarded 	1
scalar BMacTest.node[12].nic.ids 	neighbour122IntentionalPacketDropping 	0
scalar BMacTest.node[12].nic.ids 	neighbour163PacketsReceived 	0
scalar BMacTest.node[12].nic.ids 	neighbour163PacketsForwarded 	0
scalar BMacTest.node[12].nic.ids 	neighbour163IntentionalPacketDropping 	0
scalar BMacTest.node[12].nic.ids 	neighbour182PacketsReceived 	0
scalar BMacTest.node[12].nic.ids 	neighbour182PacketsForwarded 	0
scalar BMacTest.node[12].nic.ids 	neighbour182IntentionalPacketDropping 	0
scalar BMacTest.node[12].nic.ids 	neighbour186PacketsReceived 	0
scalar BMacTest.node[12].nic.ids 	neighbour186PacketsForwarded 	0
scalar BMacTest.node[12].nic.ids 	neighbour186IntentionalPacketDropping 	0
scalar BMacTest.node[12].nic.ids 	neighbour206PacketsReceived 	3
scalar BMacTest.node[12].nic.ids 	neighbour206PacketsForwarded 	0
scalar BMacTest.node[12].nic.ids 	neighbour206IntentionalPacketDropping 	0.5
scalar BMacTest.node[12].nic.ids 	neighbour236PacketsReceived 	0
scalar BMacTest.node[12].nic.ids 	neighbour236PacketsForwarded 	0
scalar BMacTest.node[12].nic.ids 	neighbour236IntentionalPacketDropping 	0
scalar BMacTest.node[12].nic.ids 	neighbour239PacketsReceived 	3
scalar BMacTest.node[12].nic.ids 	neighbour239PacketsForwarded 	3
scalar BMacTest.node[12].nic.ids 	neighbour239IntentionalPacketDropping 	0
scalar BMacTest.node[12].nic.ids 	neighbour241PacketsReceived 	1
scalar BMacTest.node[12].nic.ids 	neighbour241PacketsForwarded 	0
scalar BMacTest.node[12].nic.ids 	neighbour241IntentionalPacketDropping 	0
scalar BMacTest.node[12].nic.ids 	neighbour246PacketsReceived 	0
scalar BMacTest.node[12].nic.ids 	neighbour246PacketsForwarded 	0
scalar BMacTest.node[12].nic.ids 	neighbour246IntentionalPacketDropping 	0
scalar BMacTest.node[12].nic.ids 	data_packets_intercepted 	24
scalar BMacTest.node[12].nic.ids 	data_packets_me_to_somebody 	1
scalar BMacTest.node[12].nic.ids 	data_packets_somebody_to_me 	0
scalar BMacTest.node[12].nic.ids 	data_packets_somebody_to_somebody 	23
scalar BMacTest.node[12].netwl 	nbPacketsForwarded 	0
scalar BMacTest.node[12].netwl 	nbPacketsReceived 	0
scalar BMacTest.node[12].netwl 	nbPacketsSent 	1
scalar BMacTest.node[12].netwl 	nbPacketsDropped 	0
scalar BMacTest.node[13].nic.ids 	notAffectedByHostState 	0
scalar BMacTest.node[13].nic.ids 	stats 	1
scalar BMacTest.node[13].nic.ids 	debug 	0
scalar BMacTest.node[13].nic.ids 	maxMonitoredNodes 	250
scalar BMacTest.node[13].nic.ids 	fwdBufferSize 	100
scalar BMacTest.node[13].nic.ids 	fwdMinPacketsReceived 	0
scalar BMacTest.node[13].nic.ids 	fwdDetectionThreshold 	0.5
scalar BMacTest.node[13].nic.ids 	memIDSEntry 	8
scalar BMacTest.node[13].nic.ids 	memBufferEntry 	16
scalar BMacTest.node[13].nic.ids 	maxDistance 	999999
scalar BMacTest.node[13].nic.ids 	fwdPacketTimeout 	999999
scalar BMacTest.node[13].nic.ids 	neighbour6PacketsReceived 	0
scalar BMacTest.node[13].nic.ids 	neighbour6PacketsForwarded 	0
scalar BMacTest.node[13].nic.ids 	neighbour6IntentionalPacketDropping 	0
scalar BMacTest.node[13].nic.ids 	neighbour56PacketsReceived 	0
scalar BMacTest.node[13].nic.ids 	neighbour56PacketsForwarded 	0
scalar BMacTest.node[13].nic.ids 	neighbour56IntentionalPacketDropping 	0
scalar BMacTest.node[13].nic.ids 	neighbour73PacketsReceived 	0
scalar BMacTest.node[13].nic.ids 	neighbour73PacketsForwarded 	0
scalar BMacTest.node[13].nic.ids 	neighbour73IntentionalPacketDropping 	0
scalar BMacTest.node[13].nic.ids 	neighbour81PacketsReceived 	0
scalar BMacTest.node[13].nic.ids 	neighbour81PacketsForwarded 	0
scalar BMacTest.node[13].nic.ids 	neighbour81IntentionalPacketDropping 	0
scalar BMacTest.node[13].nic.ids 	neighbour140PacketsReceived 	0
scalar BMacTest.node[13].nic.ids 	neighbour140PacketsForwarded 	0
scalar BMacTest.node[13].nic.ids 	neighbour140IntentionalPacketDropping 	0
scalar BMacTest.node[13].nic.ids 	neighbour179PacketsReceived 	0
scalar BMacTest.node[13].nic.ids 	neighbour179PacketsForwarded 	0
scalar BMacTest.node[13].nic.ids 	neighbour179IntentionalPacketDropping 	0
scalar BMacTest.node[13].nic.ids 	neighbour197PacketsReceived 	2
scalar BMacTest.node[13].nic.ids 	neighbour197PacketsForwarded 	2
scalar BMacTest.node[13].nic.ids 	neighbour197IntentionalPacketDropping 	0
scalar BMacTest.node[13].nic.ids 	neighbour224PacketsReceived 	0
scalar BMacTest.node[13].nic.ids 	neighbour224PacketsForwarded 	0
scalar BMacTest.node[13].nic.ids 	neighbour224IntentionalPacketDropping 	0
scalar BMacTest.node[13].nic.ids 	data_packets_intercepted 	9
scalar BMacTest.node[13].nic.ids 	data_packets_me_to_somebody 	0
scalar BMacTest.node[13].nic.ids 	data_packets_somebody_to_me 	0
scalar BMacTest.node[13].nic.ids 	data_packets_somebody_to_somebody 	9
scalar BMacTest.node[13].netwl 	nbPacketsForwarded 	0
scalar BMacTest.node[13].netwl 	nbPacketsReceived 	0
scalar BMacTest.node[13].netwl 	nbPacketsSent 	0
scalar BMacTest.node[13].netwl 	nbPacketsDropped 	0
scalar BMacTest.node[14].nic.ids 	notAffectedByHostState 	0
scalar BMacTest.node[14].nic.ids 	stats 	1
scalar BMacTest.node[14].nic.ids 	debug 	0
scalar BMacTest.node[14].nic.ids 	maxMonitoredNodes 	250
scalar BMacTest.node[14].nic.ids 	fwdBufferSize 	100
scalar BMacTest.node[14].nic.ids 	fwdMinPacketsReceived 	0
scalar BMacTest.node[14].nic.ids 	fwdDetectionThreshold 	0.5
scalar BMacTest.node[14].nic.ids 	memIDSEntry 	8
scalar BMacTest.node[14].nic.ids 	memBufferEntry 	16
scalar BMacTest.node[14].nic.ids 	maxDistance 	999999
scalar BMacTest.node[14].nic.ids 	fwdPacketTimeout 	999999
scalar BMacTest.node[14].nic.ids 	neighbour52PacketsReceived 	0
scalar BMacTest.node[14].nic.ids 	neighbour52PacketsForwarded 	0
scalar BMacTest.node[14].nic.ids 	neighbour52IntentionalPacketDropping 	0
scalar BMacTest.node[14].nic.ids 	neighbour179PacketsReceived 	0
scalar BMacTest.node[14].nic.ids 	neighbour179PacketsForwarded 	0
scalar BMacTest.node[14].nic.ids 	neighbour179IntentionalPacketDropping 	0
scalar BMacTest.node[14].nic.ids 	data_packets_intercepted 	2
scalar BMacTest.node[14].nic.ids 	data_packets_me_to_somebody 	0
scalar BMacTest.node[14].nic.ids 	data_packets_somebody_to_me 	0
scalar BMacTest.node[14].nic.ids 	data_packets_somebody_to_somebody 	2
scalar BMacTest.node[14].netwl 	nbPacketsForwarded 	0
scalar BMacTest.node[14].netwl 	nbPacketsReceived 	0
scalar BMacTest.node[14].netwl 	nbPacketsSent 	0
scalar BMacTest.node[14].netwl 	nbPacketsDropped 	0
scalar BMacTest.node[15].nic.ids 	notAffectedByHostState 	0
scalar BMacTest.node[15].nic.ids 	stats 	1
scalar BMacTest.node[15].nic.ids 	debug 	0
scalar BMacTest.node[15].nic.ids 	maxMonitoredNodes 	250
scalar BMacTest.node[15].nic.ids 	fwdBufferSize 	100
scalar BMacTest.node[15].nic.ids 	fwdMinPacketsReceived 	0
scalar BMacTest.node[15].nic.ids 	fwdDetectionThreshold 	0.5
scalar BMacTest.node[15].nic.ids 	memIDSEntry 	8
scalar BMacTest.node[15].nic.ids 	memBufferEntry 	16
scalar BMacTest.node[15].nic.ids 	maxDistance 	999999
scalar BMacTest.node[15].nic.ids 	fwdPacketTimeout 	999999
scalar BMacTest.node[15].nic.ids 	neighbour6PacketsReceived 	0
scalar BMacTest.node[15].nic.ids 	neighbour6PacketsForwarded 	0
scalar BMacTest.node[15].nic.ids 	neighbour6IntentionalPacketDropping 	0
scalar BMacTest.node[15].nic.ids 	neighbour28PacketsReceived 	0
scalar BMacTest.node[15].nic.ids 	neighbour28PacketsForwarded 	0
scalar BMacTest.node[15].nic.ids 	neighbour28IntentionalPacketDropping 	0
scalar BMacTest.node[15].nic.ids 	neighbour104PacketsReceived 	1
scalar BMacTest.node[15].nic.ids 	neighbour104PacketsForwarded 	1
scalar BMacTest.node[15].nic.ids 	neighbour104IntentionalPacketDropping 	0
scalar BMacTest.node[15].nic.ids 	neighbour140PacketsReceived 	0
scalar BMacTest.node[15].nic.ids 	neighbour140PacketsForwarded 	0
scalar BMacTest.node[15].nic.ids 	neighbour140IntentionalPacketDropping 	0
scalar BMacTest.node[15].nic.ids 	neighbour158PacketsReceived 	0
scalar BMacTest.node[15].nic.ids 	neighbour158PacketsForwarded 	0
scalar BMacTest.node[15].nic.ids 	neighbour158IntentionalPacketDropping 	0
scalar BMacTest.node[15].nic.ids 	neighbour168PacketsReceived 	0
scalar BMacTest.node[15].nic.ids 	neighbour168PacketsForwarded 	0
scalar BMacTest.node[15].nic.ids 	neighbour168IntentionalPacketDropping 	0
scalar BMacTest.node[15].nic.ids 	neighbour172PacketsReceived 	0
scalar BMacTest.node[15].nic.ids 	neighbour172PacketsForwarded 	0
scalar BMacTest.node[15].nic.ids 	neighbour172IntentionalPacketDropping 	0
scalar BMacTest.node[15].nic.ids 	neighbour194PacketsReceived 	0
scalar BMacTest.node[15].nic.ids 	neighbour194PacketsForwarded 	0
scalar BMacTest.node[15].nic.ids 	neighbour194IntentionalPacketDropping 	0
scalar BMacTest.node[15].nic.ids 	neighbour200PacketsReceived 	0
scalar BMacTest.node[15].nic.ids 	neighbour200PacketsForwarded 	0
scalar BMacTest.node[15].nic.ids 	neighbour200IntentionalPacketDropping 	0
scalar BMacTest.node[15].nic.ids 	neighbour233PacketsReceived 	0
scalar BMacTest.node[15].nic.ids 	neighbour233PacketsForwarded 	0
scalar BMacTest.node[15].nic.ids 	neighbour233IntentionalPacketDropping 	0
scalar BMacTest.node[15].nic.ids 	neighbour236PacketsReceived 	0
scalar BMacTest.node[15].nic.ids 	neighbour236PacketsForwarded 	0
scalar BMacTest.node[15].nic.ids 	neighbour236IntentionalPacketDropping 	0
scalar BMacTest.node[15].nic.ids 	neighbour237PacketsReceived 	0
scalar BMacTest.node[15].nic.ids 	neighbour237PacketsForwarded 	0
scalar BMacTest.node[15].nic.ids 	neighbour237IntentionalPacketDropping 	0
scalar BMacTest.node[15].nic.ids 	data_packets_intercepted 	14
scalar BMacTest.node[15].nic.ids 	data_packets_me_to_somebody 	0
scalar BMacTest.node[15].nic.ids 	data_packets_somebody_to_me 	0
scalar BMacTest.node[15].nic.ids 	data_packets_somebody_to_somebody 	14
scalar BMacTest.node[15].netwl 	nbPacketsForwarded 	0
scalar BMacTest.node[15].netwl 	nbPacketsReceived 	0
scalar BMacTest.node[15].netwl 	nbPacketsSent 	0
scalar BMacTest.node[15].netwl 	nbPacketsDropped 	0
scalar BMacTest.node[16].nic.ids 	notAffectedByHostState 	0
scalar BMacTest.node[16].nic.ids 	stats 	1
scalar BMacTest.node[16].nic.ids 	debug 	0
scalar BMacTest.node[16].nic.ids 	maxMonitoredNodes 	250
scalar BMacTest.node[16].nic.ids 	fwdBufferSize 	100
scalar BMacTest.node[16].nic.ids 	fwdMinPacketsReceived 	0
scalar BMacTest.node[16].nic.ids 	fwdDetectionThreshold 	0.5
scalar BMacTest.node[16].nic.ids 	memIDSEntry 	8
scalar BMacTest.node[16].nic.ids 	memBufferEntry 	16
scalar BMacTest.node[16].nic.ids 	maxDistance 	999999
scalar BMacTest.node[16].nic.ids 	fwdPacketTimeout 	999999
scalar BMacTest.node[16].nic.ids 	neighbour71PacketsReceived 	1
scalar BMacTest.node[16].nic.ids 	neighbour71PacketsForwarded 	1
scalar BMacTest.node[16].nic.ids 	neighbour71IntentionalPacketDropping 	0
scalar BMacTest.node[16].nic.ids 	neighbour222PacketsReceived 	0
scalar BMacTest.node[16].nic.ids 	neighbour222PacketsForwarded 	0
scalar BMacTest.node[16].nic.ids 	neighbour222IntentionalPacketDropping 	0
scalar BMacTest.node[16].nic.ids 	data_packets_intercepted 	3
scalar BMacTest.node[16].nic.ids 	data_packets_me_to_somebody 	1
scalar BMacTest.node[16].nic.ids 	data_packets_somebody_to_me 	0
scalar BMacTest.node[16].nic.ids 	data_packets_somebody_to_somebody 	2
scalar BMacTest.node[16].netwl 	nbPacketsForwarded 	0
scalar BMacTest.node[16].netwl 	nbPacketsReceived 	0
scalar BMacTest.node[16].netwl 	nbPacketsSent 	1
scalar BMacTest.node[16].netwl 	nbPacketsDropped 	0
scalar BMacTest.node[17].nic.ids 	notAffectedByHostState 	0
scalar BMacTest.node[17].nic.ids 	stats 	1
scalar BMacTest.node[17].nic.ids 	debug 	0
scalar BMacTest.node[17].nic.ids 	maxMonitoredNodes 	250
scalar BMacTest.node[17].nic.ids 	fwdBufferSize 	100
scalar BMacTest.node[17].nic.ids 	fwdMinPacketsReceived 	0
scalar BMacTest.node[17].nic.ids 	fwdDetectionThreshold 	0.5
scalar BMacTest.node[17].nic.ids 	memIDSEntry 	8
scalar BMacTest.node[17].nic.ids 	memBufferEntry 	16
scalar BMacTest.node[17].nic.ids 	maxDistance 	999999
scalar BMacTest.node[17].nic.ids 	fwdPacketTimeout 	999999
scalar BMacTest.node[17].nic.ids 	neighbour42PacketsReceived 	0
scalar BMacTest.node[17].nic.ids 	neighbour42PacketsForwarded 	0
scalar BMacTest.node[17].nic.ids 	neighbour42IntentionalPacketDropping 	0
scalar BMacTest.node[17].nic.ids 	neighbour118PacketsReceived 	0
scalar BMacTest.node[17].nic.ids 	neighbour118PacketsForwarded 	0
scalar BMacTest.node[17].nic.ids 	neighbour118IntentionalPacketDropping 	0
scalar BMacTest.node[17].nic.ids 	neighbour124PacketsReceived 	0
scalar BMacTest.node[17].nic.ids 	neighbour124PacketsForwarded 	0
scalar BMacTest.node[17].nic.ids 	neighbour124IntentionalPacketDropping 	0
scalar BMacTest.node[17].nic.ids 	neighbour153PacketsReceived 	0
scalar BMacTest.node[17].nic.ids 	neighbour153PacketsForwarded 	0
scalar BMacTest.node[17].nic.ids 	neighbour153IntentionalPacketDropping 	0
scalar BMacTest.node[17].nic.ids 	neighbour212PacketsReceived 	1
scalar BMacTest.node[17].nic.ids 	neighbour212PacketsForwarded 	1
scalar BMacTest.node[17].nic.ids 	neighbour212IntentionalPacketDropping 	0
scalar BMacTest.node[17].nic.ids 	data_packets_intercepted 	5
scalar BMacTest.node[17].nic.ids 	data_packets_me_to_somebody 	0
scalar BMacTest.node[17].nic.ids 	data_packets_somebody_to_me 	0
scalar BMacTest.node[17].nic.ids 	data_packets_somebody_to_somebody 	5
scalar BMacTest.node[17].netwl 	nbPacketsForwarded 	0
scalar BMacTest.node[17].netwl 	nbPacketsReceived 	0
scalar BMacTest.node[17].netwl 	nbPacketsSent 	0
scalar BMacTest.node[17].netwl 	nbPacketsDropped 	0
scalar BMacTest.node[18].nic.ids 	notAffectedByHostState 	0
scalar BMacTest.node[18].nic.ids 	stats 	1
scalar BMacTest.node[18].nic.ids 	debug 	0
scalar BMacTest.node[18].nic.ids 	maxMonitoredNodes 	250
scalar BMacTest.node[18].nic.ids 	fwdBufferSize 	100
scalar BMacTest.node[18].nic.ids 	fwdMinPacketsReceived 	0
scalar BMacTest.node[18].nic.ids 	fwdDetectionThreshold 	0.5
scalar BMacTest.node[18].nic.ids 	memIDSEntry 	8
scalar BMacTest.node[18].nic.ids 	memBufferEntry 	16
scalar BMacTest.node[18].nic.ids 	maxDistance 	999999
scalar BMacTest.node[18].nic.ids 	fwdPacketTimeout 	999999
scalar BMacTest.node[18].nic.ids 	neighbour10PacketsReceived 	0
scalar BMacTest.node[18].nic.ids 	neighbour10PacketsForwarded 	0
scalar BMacTest.node[18].nic.ids 	neighbour10IntentionalPacketDropping 	0
scalar BMacTest.node[18].nic.ids 	neighbour20PacketsReceived 	3
scalar BMacTest.node[18].nic.ids 	neighbour20PacketsForwarded 	1
scalar BMacTest.node[18].nic.ids 	neighbour20IntentionalPacketDropping 	0.5
scalar BMacTest.node[18].nic.ids 	neighbour32PacketsReceived 	0
scalar BMacTest.node[18].nic.ids 	neighbour32PacketsForwarded 	0
scalar BMacTest.node[18].nic.ids 	neighbour32IntentionalPacketDropping 	0
scalar BMacTest.node[18].nic.ids 	neighbour40PacketsReceived 	0
scalar BMacTest.node[18].nic.ids 	neighbour40PacketsForwarded 	0
scalar BMacTest.node[18].nic.ids 	neighbour40IntentionalPacketDropping 	0
scalar BMacTest.node[18].nic.ids 	neighbour54PacketsReceived 	1
scalar BMacTest.node[18].nic.ids 	neighbour54PacketsForwarded 	0
scalar BMacTest.node[18].nic.ids 	neighbour54IntentionalPacketDropping 	0
scalar BMacTest.node[18].nic.ids 	neighbour55PacketsReceived 	0
scalar BMacTest.node[18].nic.ids 	neighbour55PacketsForwarded 	0
scalar BMacTest.node[18].nic.ids 	neighbour55IntentionalPacketDropping 	0
scalar BMacTest.node[18].nic.ids 	neighbour71PacketsReceived 	0
scalar BMacTest.node[18].nic.ids 	neighbour71PacketsForwarded 	0
scalar BMacTest.node[18].nic.ids 	neighbour71IntentionalPacketDropping 	0
scalar BMacTest.node[18].nic.ids 	neighbour87PacketsReceived 	3
scalar BMacTest.node[18].nic.ids 	neighbour87PacketsForwarded 	1
scalar BMacTest.node[18].nic.ids 	neighbour87IntentionalPacketDropping 	0
scalar BMacTest.node[18].nic.ids 	neighbour90PacketsReceived 	0
scalar BMacTest.node[18].nic.ids 	neighbour90PacketsForwarded 	0
scalar BMacTest.node[18].nic.ids 	neighbour90IntentionalPacketDropping 	0
scalar BMacTest.node[18].nic.ids 	neighbour106PacketsReceived 	0
scalar BMacTest.node[18].nic.ids 	neighbour106PacketsForwarded 	0
scalar BMacTest.node[18].nic.ids 	neighbour106IntentionalPacketDropping 	0
scalar BMacTest.node[18].nic.ids 	neighbour148PacketsReceived 	0
scalar BMacTest.node[18].nic.ids 	neighbour148PacketsForwarded 	0
scalar BMacTest.node[18].nic.ids 	neighbour148IntentionalPacketDropping 	0
scalar BMacTest.node[18].nic.ids 	neighbour162PacketsReceived 	0
scalar BMacTest.node[18].nic.ids 	neighbour162PacketsForwarded 	0
scalar BMacTest.node[18].nic.ids 	neighbour162IntentionalPacketDropping 	0
scalar BMacTest.node[18].nic.ids 	neighbour185PacketsReceived 	1
scalar BMacTest.node[18].nic.ids 	neighbour185PacketsForwarded 	0
scalar BMacTest.node[18].nic.ids 	neighbour185IntentionalPacketDropping 	0
scalar BMacTest.node[18].nic.ids 	neighbour190PacketsReceived 	2
scalar BMacTest.node[18].nic.ids 	neighbour190PacketsForwarded 	2
scalar BMacTest.node[18].nic.ids 	neighbour190IntentionalPacketDropping 	0
scalar BMacTest.node[18].nic.ids 	neighbour196PacketsReceived 	0
scalar BMacTest.node[18].nic.ids 	neighbour196PacketsForwarded 	0
scalar BMacTest.node[18].nic.ids 	neighbour196IntentionalPacketDropping 	0
scalar BMacTest.node[18].nic.ids 	neighbour205PacketsReceived 	1
scalar BMacTest.node[18].nic.ids 	neighbour205PacketsForwarded 	1
scalar BMacTest.node[18].nic.ids 	neighbour205IntentionalPacketDropping 	0
scalar BMacTest.node[18].nic.ids 	neighbour211PacketsReceived 	0
scalar BMacTest.node[18].nic.ids 	neighbour211PacketsForwarded 	0
scalar BMacTest.node[18].nic.ids 	neighbour211IntentionalPacketDropping 	0
scalar BMacTest.node[18].nic.ids 	neighbour226PacketsReceived 	0
scalar BMacTest.node[18].nic.ids 	neighbour226PacketsForwarded 	0
scalar BMacTest.node[18].nic.ids 	neighbour226IntentionalPacketDropping 	0
scalar BMacTest.node[18].nic.ids 	neighbour235PacketsReceived 	0
scalar BMacTest.node[18].nic.ids 	neighbour235PacketsForwarded 	0
scalar BMacTest.node[18].nic.ids 	neighbour235IntentionalPacketDropping 	0
scalar BMacTest.node[18].nic.ids 	data_packets_intercepted 	29
scalar BMacTest.node[18].nic.ids 	data_packets_me_to_somebody 	1
scalar BMacTest.node[18].nic.ids 	data_packets_somebody_to_me 	1
scalar BMacTest.node[18].nic.ids 	data_packets_somebody_to_somebody 	27
scalar BMacTest.node[18].netwl 	nbPacketsForwarded 	1
scalar BMacTest.node[18].netwl 	nbPacketsReceived 	1
scalar BMacTest.node[18].netwl 	nbPacketsSent 	0
scalar BMacTest.node[18].netwl 	nbPacketsDropped 	0
scalar BMacTest.node[19].nic.ids 	notAffectedByHostState 	0
scalar BMacTest.node[19].nic.ids 	stats 	1
scalar BMacTest.node[19].nic.ids 	debug 	0
scalar BMacTest.node[19].nic.ids 	maxMonitoredNodes 	250
scalar BMacTest.node[19].nic.ids 	fwdBufferSize 	100
scalar BMacTest.node[19].nic.ids 	fwdMinPacketsReceived 	0
scalar BMacTest.node[19].nic.ids 	fwdDetectionThreshold 	0.5
scalar BMacTest.node[19].nic.ids 	memIDSEntry 	8
scalar BMacTest.node[19].nic.ids 	memBufferEntry 	16
scalar BMacTest.node[19].nic.ids 	maxDistance 	999999
scalar BMacTest.node[19].nic.ids 	fwdPacketTimeout 	999999
scalar BMacTest.node[19].nic.ids 	neighbour8PacketsReceived 	3
scalar BMacTest.node[19].nic.ids 	neighbour8PacketsForwarded 	3
scalar BMacTest.node[19].nic.ids 	neighbour8IntentionalPacketDropping 	0
scalar BMacTest.node[19].nic.ids 	neighbour27PacketsReceived 	0
scalar BMacTest.node[19].nic.ids 	neighbour27PacketsForwarded 	0
scalar BMacTest.node[19].nic.ids 	neighbour27IntentionalPacketDropping 	0
scalar BMacTest.node[19].nic.ids 	neighbour29PacketsReceived 	0
scalar BMacTest.node[19].nic.ids 	neighbour29PacketsForwarded 	0
scalar BMacTest.node[19].nic.ids 	neighbour29IntentionalPacketDropping 	0
scalar BMacTest.node[19].nic.ids 	neighbour54PacketsReceived 	0
scalar BMacTest.node[19].nic.ids 	neighbour54PacketsForwarded 	0
scalar BMacTest.node[19].nic.ids 	neighbour54IntentionalPacketDropping 	0
scalar BMacTest.node[19].nic.ids 	neighbour70PacketsReceived 	0
scalar BMacTest.node[19].nic.ids 	neighbour70PacketsForwarded 	0
scalar BMacTest.node[19].nic.ids 	neighbour70IntentionalPacketDropping 	0
scalar BMacTest.node[19].nic.ids 	neighbour93PacketsReceived 	0
scalar BMacTest.node[19].nic.ids 	neighbour93PacketsForwarded 	0
scalar BMacTest.node[19].nic.ids 	neighbour93IntentionalPacketDropping 	0
scalar BMacTest.node[19].nic.ids 	neighbour108PacketsReceived 	0
scalar BMacTest.node[19].nic.ids 	neighbour108PacketsForwarded 	0
scalar BMacTest.node[19].nic.ids 	neighbour108IntentionalPacketDropping 	0
scalar BMacTest.node[19].nic.ids 	neighbour113PacketsReceived 	2
scalar BMacTest.node[19].nic.ids 	neighbour113PacketsForwarded 	1
scalar BMacTest.node[19].nic.ids 	neighbour113IntentionalPacketDropping 	0
scalar BMacTest.node[19].nic.ids 	neighbour116PacketsReceived 	3
scalar BMacTest.node[19].nic.ids 	neighbour116PacketsForwarded 	3
scalar BMacTest.node[19].nic.ids 	neighbour116IntentionalPacketDropping 	0
scalar BMacTest.node[19].nic.ids 	neighbour175PacketsReceived 	0
scalar BMacTest.node[19].nic.ids 	neighbour175PacketsForwarded 	0
scalar BMacTest.node[19].nic.ids 	neighbour175IntentionalPacketDropping 	0
scalar BMacTest.node[19].nic.ids 	neighbour206PacketsReceived 	2
scalar BMacTest.node[19].nic.ids 	neighbour206PacketsForwarded 	0
scalar BMacTest.node[19].nic.ids 	neighbour206IntentionalPacketDropping 	0.5
scalar BMacTest.node[19].nic.ids 	neighbour210PacketsReceived 	0
scalar BMacTest.node[19].nic.ids 	neighbour210PacketsForwarded 	0
scalar BMacTest.node[19].nic.ids 	neighbour210IntentionalPacketDropping 	0
scalar BMacTest.node[19].nic.ids 	neighbour211PacketsReceived 	0
scalar BMacTest.node[19].nic.ids 	neighbour211PacketsForwarded 	0
scalar BMacTest.node[19].nic.ids 	neighbour211IntentionalPacketDropping 	0
scalar BMacTest.node[19].nic.ids 	neighbour239PacketsReceived 	0
scalar BMacTest.node[19].nic.ids 	neighbour239PacketsForwarded 	0
scalar BMacTest.node[19].nic.ids 	neighbour239IntentionalPacketDropping 	0
scalar BMacTest.node[19].nic.ids 	neighbour241PacketsReceived 	0
scalar BMacTest.node[19].nic.ids 	neighbour241PacketsForwarded 	0
scalar BMacTest.node[19].nic.ids 	neighbour241IntentionalPacketDropping 	0
scalar BMacTest.node[19].nic.ids 	data_packets_intercepted 	48
scalar BMacTest.node[19].nic.ids 	data_packets_me_to_somebody 	5
scalar BMacTest.node[19].nic.ids 	data_packets_somebody_to_me 	5
scalar BMacTest.node[19].nic.ids 	data_packets_somebody_to_somebody 	38
scalar BMacTest.node[19].netwl 	nbPacketsForwarded 	5
scalar BMacTest.node[19].netwl 	nbPacketsReceived 	5
scalar BMacTest.node[19].netwl 	nbPacketsSent 	0
scalar BMacTest.node[19].netwl 	nbPacketsDropped 	0
scalar BMacTest.node[20].nic.ids 	notAffectedByHostState 	0
scalar BMacTest.node[20].nic.ids 	stats 	1
scalar BMacTest.node[20].nic.ids 	debug 	0
scalar BMacTest.node[20].nic.ids 	maxMonitoredNodes 	250
scalar BMacTest.node[20].nic.ids 	fwdBufferSize 	100
scalar BMacTest.node[20].nic.ids 	fwdMinPacketsReceived 	0
scalar BMacTest.node[20].nic.ids 	fwdDetectionThreshold 	0.5
scalar BMacTest.node[20].nic.ids 	memIDSEntry 	8
scalar BMacTest.node[20].nic.ids 	memBufferEntry 	16
scalar BMacTest.node[20].nic.ids 	maxDistance 	999999
scalar BMacTest.node[20].nic.ids 	fwdPacketTimeout 	999999
scalar BMacTest.node[20].nic.ids 	neighbour8PacketsReceived 	2
scalar BMacTest.node[20].nic.ids 	neighbour8PacketsForwarded 	0
scalar BMacTest.node[20].nic.ids 	neighbour8IntentionalPacketDropping 	0
scalar BMacTest.node[20].nic.ids 	neighbour10PacketsReceived 	0
scalar BMacTest.node[20].nic.ids 	neighbour10PacketsForwarded 	0
scalar BMacTest.node[20].nic.ids 	neighbour10IntentionalPacketDropping 	0
scalar BMacTest.node[20].nic.ids 	neighbour18PacketsReceived 	0
scalar BMacTest.node[20].nic.ids 	neighbour18PacketsForwarded 	0
scalar BMacTest.node[20].nic.ids 	neighbour18IntentionalPacketDropping 	0
scalar BMacTest.node[20].nic.ids 	neighbour32PacketsReceived 	0
scalar BMacTest.node[20].nic.ids 	neighbour32PacketsForwarded 	0
scalar BMacTest.node[20].nic.ids 	neighbour32IntentionalPacketDropping 	0
scalar BMacTest.node[20].nic.ids 	neighbour40PacketsReceived 	0
scalar BMacTest.node[20].nic.ids 	neighbour40PacketsForwarded 	0
scalar BMacTest.node[20].nic.ids 	neighbour40IntentionalPacketDropping 	0
scalar BMacTest.node[20].nic.ids 	neighbour54PacketsReceived 	4
scalar BMacTest.node[20].nic.ids 	neighbour54PacketsForwarded 	2
scalar BMacTest.node[20].nic.ids 	neighbour54IntentionalPacketDropping 	0
scalar BMacTest.node[20].nic.ids 	neighbour63PacketsReceived 	0
scalar BMacTest.node[20].nic.ids 	neighbour63PacketsForwarded 	0
scalar BMacTest.node[20].nic.ids 	neighbour63IntentionalPacketDropping 	0
scalar BMacTest.node[20].nic.ids 	neighbour70PacketsReceived 	0
scalar BMacTest.node[20].nic.ids 	neighbour70PacketsForwarded 	0
scalar BMacTest.node[20].nic.ids 	neighbour70IntentionalPacketDropping 	0
scalar BMacTest.node[20].nic.ids 	neighbour82PacketsReceived 	0
scalar BMacTest.node[20].nic.ids 	neighbour82PacketsForwarded 	0
scalar BMacTest.node[20].nic.ids 	neighbour82IntentionalPacketDropping 	0
scalar BMacTest.node[20].nic.ids 	neighbour87PacketsReceived 	4
scalar BMacTest.node[20].nic.ids 	neighbour87PacketsForwarded 	4
scalar BMacTest.node[20].nic.ids 	neighbour87IntentionalPacketDropping 	0
scalar BMacTest.node[20].nic.ids 	neighbour88PacketsReceived 	0
scalar BMacTest.node[20].nic.ids 	neighbour88PacketsForwarded 	0
scalar BMacTest.node[20].nic.ids 	neighbour88IntentionalPacketDropping 	0
scalar BMacTest.node[20].nic.ids 	neighbour90PacketsReceived 	0
scalar BMacTest.node[20].nic.ids 	neighbour90PacketsForwarded 	0
scalar BMacTest.node[20].nic.ids 	neighbour90IntentionalPacketDropping 	0
scalar BMacTest.node[20].nic.ids 	neighbour106PacketsReceived 	0
scalar BMacTest.node[20].nic.ids 	neighbour106PacketsForwarded 	0
scalar BMacTest.node[20].nic.ids 	neighbour106IntentionalPacketDropping 	0
scalar BMacTest.node[20].nic.ids 	neighbour108PacketsReceived 	3
scalar BMacTest.node[20].nic.ids 	neighbour108PacketsForwarded 	2
scalar BMacTest.node[20].nic.ids 	neighbour108IntentionalPacketDropping 	0
scalar BMacTest.node[20].nic.ids 	neighbour113PacketsReceived 	2
scalar BMacTest.node[20].nic.ids 	neighbour113PacketsForwarded 	1
scalar BMacTest.node[20].nic.ids 	neighbour113IntentionalPacketDropping 	0
scalar BMacTest.node[20].nic.ids 	neighbour148PacketsReceived 	0
scalar BMacTest.node[20].nic.ids 	neighbour148PacketsForwarded 	0
scalar BMacTest.node[20].nic.ids 	neighbour148IntentionalPacketDropping 	0
scalar BMacTest.node[20].nic.ids 	neighbour185PacketsReceived 	1
scalar BMacTest.node[20].nic.ids 	neighbour185PacketsForwarded 	1
scalar BMacTest.node[20].nic.ids 	neighbour185IntentionalPacketDropping 	0
scalar BMacTest.node[20].nic.ids 	neighbour190PacketsReceived 	2
scalar BMacTest.node[20].nic.ids 	neighbour190PacketsForwarded 	2
scalar BMacTest.node[20].nic.ids 	neighbour190IntentionalPacketDropping 	0
scalar BMacTest.node[20].nic.ids 	neighbour196PacketsReceived 	0
scalar BMacTest.node[20].nic.ids 	neighbour196PacketsForwarded 	0
scalar BMacTest.node[20].nic.ids 	neighbour196IntentionalPacketDropping 	0
scalar BMacTest.node[20].nic.ids 	neighbour205PacketsReceived 	0
scalar BMacTest.node[20].nic.ids 	neighbour205PacketsForwarded 	0
scalar BMacTest.node[20].nic.ids 	neighbour205IntentionalPacketDropping 	0
scalar BMacTest.node[20].nic.ids 	neighbour211PacketsReceived 	1
scalar BMacTest.node[20].nic.ids 	neighbour211PacketsForwarded 	1
scalar BMacTest.node[20].nic.ids 	neighbour211IntentionalPacketDropping 	0
scalar BMacTest.node[20].nic.ids 	neighbour226PacketsReceived 	0
scalar BMacTest.node[20].nic.ids 	neighbour226PacketsForwarded 	0
scalar BMacTest.node[20].nic.ids 	neighbour226IntentionalPacketDropping 	0
scalar BMacTest.node[20].nic.ids 	data_packets_intercepted 	42
scalar BMacTest.node[20].nic.ids 	data_packets_me_to_somebody 	1
scalar BMacTest.node[20].nic.ids 	data_packets_somebody_to_me 	2
scalar BMacTest.node[20].nic.ids 	data_packets_somebody_to_somebody 	39
scalar BMacTest.node[20].netwl 	nbPacketsForwarded 	1
scalar BMacTest.node[20].netwl 	nbPacketsReceived 	2
scalar BMacTest.node[20].netwl 	nbPacketsSent 	0
scalar BMacTest.node[20].netwl 	nbPacketsDropped 	1
scalar BMacTest.node[21].nic.ids 	notAffectedByHostState 	0
scalar BMacTest.node[21].nic.ids 	stats 	1
scalar BMacTest.node[21].nic.ids 	debug 	0
scalar BMacTest.node[21].nic.ids 	maxMonitoredNodes 	250
scalar BMacTest.node[21].nic.ids 	fwdBufferSize 	100
scalar BMacTest.node[21].nic.ids 	fwdMinPacketsReceived 	0
scalar BMacTest.node[21].nic.ids 	fwdDetectionThreshold 	0.5
scalar BMacTest.node[21].nic.ids 	memIDSEntry 	8
scalar BMacTest.node[21].nic.ids 	memBufferEntry 	16
scalar BMacTest.node[21].nic.ids 	maxDistance 	999999
scalar BMacTest.node[21].nic.ids 	fwdPacketTimeout 	999999
scalar BMacTest.node[21].nic.ids 	neighbour6PacketsReceived 	0
scalar BMacTest.node[21].nic.ids 	neighbour6PacketsForwarded 	0
scalar BMacTest.node[21].nic.ids 	neighbour6IntentionalPacketDropping 	0
scalar BMacTest.node[21].nic.ids 	neighbour12PacketsReceived 	0
scalar BMacTest.node[21].nic.ids 	neighbour12PacketsForwarded 	0
scalar BMacTest.node[21].nic.ids 	neighbour12IntentionalPacketDropping 	0
scalar BMacTest.node[21].nic.ids 	neighbour56PacketsReceived 	0
scalar BMacTest.node[21].nic.ids 	neighbour56PacketsForwarded 	0
scalar BMacTest.node[21].nic.ids 	neighbour56IntentionalPacketDropping 	0
scalar BMacTest.node[21].nic.ids 	neighbour73PacketsReceived 	0
scalar BMacTest.node[21].nic.ids 	neighbour73PacketsForwarded 	0
scalar BMacTest.node[21].nic.ids 	neighbour73IntentionalPacketDropping 	0
scalar BMacTest.node[21].nic.ids 	neighbour81PacketsReceived 	0
scalar BMacTest.node[21].nic.ids 	neighbour81PacketsForwarded 	0
scalar BMacTest.node[21].nic.ids 	neighbour81IntentionalPacketDropping 	0
scalar BMacTest.node[21].nic.ids 	neighbour197PacketsReceived 	1
scalar BMacTest.node[21].nic.ids 	neighbour197PacketsForwarded 	1
scalar BMacTest.node[21].nic.ids 	neighbour197IntentionalPacketDropping 	0
scalar BMacTest.node[21].nic.ids 	neighbour224PacketsReceived 	0
scalar BMacTest.node[21].nic.ids 	neighbour224PacketsForwarded 	0
scalar BMacTest.node[21].nic.ids 	neighbour224IntentionalPacketDropping 	0
scalar BMacTest.node[21].nic.ids 	neighbour236PacketsReceived 	1
scalar BMacTest.node[21].nic.ids 	neighbour236PacketsForwarded 	1
scalar BMacTest.node[21].nic.ids 	neighbour236IntentionalPacketDropping 	0
scalar BMacTest.node[21].nic.ids 	data_packets_intercepted 	10
scalar BMacTest.node[21].nic.ids 	data_packets_me_to_somebody 	0
scalar BMacTest.node[21].nic.ids 	data_packets_somebody_to_me 	0
scalar BMacTest.node[21].nic.ids 	data_packets_somebody_to_somebody 	10
scalar BMacTest.node[21].netwl 	nbPacketsForwarded 	0
scalar BMacTest.node[21].netwl 	nbPacketsReceived 	0
scalar BMacTest.node[21].netwl 	nbPacketsSent 	0
scalar BMacTest.node[21].netwl 	nbPacketsDropped 	0
scalar BMacTest.node[22].nic.ids 	notAffectedByHostState 	0
scalar BMacTest.node[22].nic.ids 	stats 	1
scalar BMacTest.node[22].nic.ids 	debug 	0
scalar BMacTest.node[22].nic.ids 	maxMonitoredNodes 	250
scalar BMacTest.node[22].nic.ids 	fwdBufferSize 	100
scalar BMacTest.node[22].nic.ids 	fwdMinPacketsReceived 	0
scalar BMacTest.node[22].nic.ids 	fwdDetectionThreshold 	0.5
scalar BMacTest.node[22].nic.ids 	memIDSEntry 	8
scalar BMacTest.node[22].nic.ids 	memBufferEntry 	16
scalar BMacTest.node[22].nic.ids 	maxDistance 	999999
scalar BMacTest.node[22].nic.ids 	fwdPacketTimeout 	999999
scalar BMacTest.node[22].nic.ids 	neighbour8PacketsReceived 	2
scalar BMacTest.node[22].nic.ids 	neighbour8PacketsForwarded 	2
scalar BMacTest.node[22].nic.ids 	neighbour8IntentionalPacketDropping 	0
scalar BMacTest.node[22].nic.ids 	neighbour20PacketsReceived 	0
scalar BMacTest.node[22].nic.ids 	neighbour20PacketsForwarded 	0
scalar BMacTest.node[22].nic.ids 	neighbour20IntentionalPacketDropping 	0.5
scalar BMacTest.node[22].nic.ids 	neighbour29PacketsReceived 	3
scalar BMacTest.node[22].nic.ids 	neighbour29PacketsForwarded 	2
scalar BMacTest.node[22].nic.ids 	neighbour29IntentionalPacketDropping 	0
scalar BMacTest.node[22].nic.ids 	neighbour33PacketsReceived 	0
scalar BMacTest.node[22].nic.ids 	neighbour33PacketsForwarded 	0
scalar BMacTest.node[22].nic.ids 	neighbour33IntentionalPacketDropping 	0
scalar BMacTest.node[22].nic.ids 	neighbour54PacketsReceived 	1
scalar BMacTest.node[22].nic.ids 	neighbour54PacketsForwarded 	0
scalar BMacTest.node[22].nic.ids 	neighbour54IntentionalPacketDropping 	0
scalar BMacTest.node[22].nic.ids 	neighbour62PacketsReceived 	0
scalar BMacTest.node[22].nic.ids 	neighbour62PacketsForwarded 	0
scalar BMacTest.node[22].nic.ids 	neighbour62IntentionalPacketDropping 	0
scalar BMacTest.node[22].nic.ids 	neighbour63PacketsReceived 	0
scalar BMacTest.node[22].nic.ids 	neighbour63PacketsForwarded 	0
scalar BMacTest.node[22].nic.ids 	neighbour63IntentionalPacketDropping 	0
scalar BMacTest.node[22].nic.ids 	neighbour70PacketsReceived 	2
scalar BMacTest.node[22].nic.ids 	neighbour70PacketsForwarded 	2
scalar BMacTest.node[22].nic.ids 	neighbour70IntentionalPacketDropping 	0
scalar BMacTest.node[22].nic.ids 	neighbour85PacketsReceived 	0
scalar BMacTest.node[22].nic.ids 	neighbour85PacketsForwarded 	0
scalar BMacTest.node[22].nic.ids 	neighbour85IntentionalPacketDropping 	0
scalar BMacTest.node[22].nic.ids 	neighbour87PacketsReceived 	0
scalar BMacTest.node[22].nic.ids 	neighbour87PacketsForwarded 	0
scalar BMacTest.node[22].nic.ids 	neighbour87IntentionalPacketDropping 	0
scalar BMacTest.node[22].nic.ids 	neighbour113PacketsReceived 	6
scalar BMacTest.node[22].nic.ids 	neighbour113PacketsForwarded 	6
scalar BMacTest.node[22].nic.ids 	neighbour113IntentionalPacketDropping 	0
scalar BMacTest.node[22].nic.ids 	neighbour119PacketsReceived 	0
scalar BMacTest.node[22].nic.ids 	neighbour119PacketsForwarded 	0
scalar BMacTest.node[22].nic.ids 	neighbour119IntentionalPacketDropping 	0
scalar BMacTest.node[22].nic.ids 	neighbour175PacketsReceived 	0
scalar BMacTest.node[22].nic.ids 	neighbour175PacketsForwarded 	0
scalar BMacTest.node[22].nic.ids 	neighbour175IntentionalPacketDropping 	0
scalar BMacTest.node[22].nic.ids 	neighbour181PacketsReceived 	0
scalar BMacTest.node[22].nic.ids 	neighbour181PacketsForwarded 	0
scalar BMacTest.node[22].nic.ids 	neighbour181IntentionalPacketDropping 	0
scalar BMacTest.node[22].nic.ids 	neighbour211PacketsReceived 	3
scalar BMacTest.node[22].nic.ids 	neighbour211PacketsForwarded 	3
scalar BMacTest.node[22].nic.ids 	neighbour211IntentionalPacketDropping 	0
scalar BMacTest.node[22].nic.ids 	data_packets_intercepted 	33
scalar BMacTest.node[22].nic.ids 	data_packets_me_to_somebody 	1
scalar BMacTest.node[22].nic.ids 	data_packets_somebody_to_me 	1
scalar BMacTest.node[22].nic.ids 	data_packets_somebody_to_somebody 	31
scalar BMacTest.node[22].netwl 	nbPacketsForwarded 	1
scalar BMacTest.node[22].netwl 	nbPacketsReceived 	1
scalar BMacTest.node[22].netwl 	nbPacketsSent 	0
scalar BMacTest.node[22].netwl 	nbPacketsDropped 	0
scalar BMacTest.node[23].nic.ids 	notAffectedByHostState 	0
scalar BMacTest.node[23].nic.ids 	stats 	1
scalar BMacTest.node[23].nic.ids 	debug 	0
scalar BMacTest.node[23].nic.ids 	maxMonitoredNodes 	250
scalar BMacTest.node[23].nic.ids 	fwdBufferSize 	100
scalar BMacTest.node[23].nic.ids 	fwdMinPacketsReceived 	0
scalar BMacTest.node[23].nic.ids 	fwdDetectionThreshold 	0.5
scalar BMacTest.node[23].nic.ids 	memIDSEntry 	8
scalar BMacTest.node[23].nic.ids 	memBufferEntry 	16
scalar BMacTest.node[23].nic.ids 	maxDistance 	999999
scalar BMacTest.node[23].nic.ids 	fwdPacketTimeout 	999999
scalar BMacTest.node[23].nic.ids 	neighbour1PacketsReceived 	0
scalar BMacTest.node[23].nic.ids 	neighbour1PacketsForwarded 	0
scalar BMacTest.node[23].nic.ids 	neighbour1IntentionalPacketDropping 	0
scalar BMacTest.node[23].nic.ids 	neighbour8PacketsReceived 	6
scalar BMacTest.node[23].nic.ids 	neighbour8PacketsForwarded 	3
scalar BMacTest.node[23].nic.ids 	neighbour8IntentionalPacketDropping 	0
scalar BMacTest.node[23].nic.ids 	neighbour19PacketsReceived 	0
scalar BMacTest.node[23].nic.ids 	neighbour19PacketsForwarded 	0
scalar BMacTest.node[23].nic.ids 	neighbour19IntentionalPacketDropping 	0
scalar BMacTest.node[23].nic.ids 	neighbour20PacketsReceived 	0
scalar BMacTest.node[23].nic.ids 	neighbour20PacketsForwarded 	0
scalar BMacTest.node[23].nic.ids 	neighbour20IntentionalPacketDropping 	0.5
scalar BMacTest.node[23].nic.ids 	neighbour32PacketsReceived 	0
scalar BMacTest.node[23].nic.ids 	neighbour32PacketsForwarded 	0
scalar BMacTest.node[23].nic.ids 	neighbour32IntentionalPacketDropping 	0
scalar BMacTest.node[23].nic.ids 	neighbour49PacketsReceived 	0
scalar BMacTest.node[23].nic.ids 	neighbour49PacketsForwarded 	0
scalar BMacTest.node[23].nic.ids 	neighbour49IntentionalPacketDropping 	0
scalar BMacTest.node[23].nic.ids 	neighbour54PacketsReceived 	4
scalar BMacTest.node[23].nic.ids 	neighbour54PacketsForwarded 	4
scalar BMacTest.node[23].nic.ids 	neighbour54IntentionalPacketDropping 	0
scalar BMacTest.node[23].nic.ids 	neighbour55PacketsReceived 	0
scalar BMacTest.node[23].nic.ids 	neighbour55PacketsForwarded 	0
scalar BMacTest.node[23].nic.ids 	neighbour55IntentionalPacketDropping 	0
scalar BMacTest.node[23].nic.ids 	neighbour76PacketsReceived 	0
scalar BMacTest.node[23].nic.ids 	neighbour76PacketsForwarded 	0
scalar BMacTest.node[23].nic.ids 	neighbour76IntentionalPacketDropping 	0
scalar BMacTest.node[23].nic.ids 	neighbour82PacketsReceived 	0
scalar BMacTest.node[23].nic.ids 	neighbour82PacketsForwarded 	0
scalar BMacTest.node[23].nic.ids 	neighbour82IntentionalPacketDropping 	0
scalar BMacTest.node[23].nic.ids 	neighbour87PacketsReceived 	0
scalar BMacTest.node[23].nic.ids 	neighbour87PacketsForwarded 	0
scalar BMacTest.node[23].nic.ids 	neighbour87IntentionalPacketDropping 	0
scalar BMacTest.node[23].nic.ids 	neighbour90PacketsReceived 	3
scalar BMacTest.node[23].nic.ids 	neighbour90PacketsForwarded 	3
scalar BMacTest.node[23].nic.ids 	neighbour90IntentionalPacketDropping 	0
scalar BMacTest.node[23].nic.ids 	neighbour105PacketsReceived 	0
scalar BMacTest.node[23].nic.ids 	neighbour105PacketsForwarded 	0
scalar BMacTest.node[23].nic.ids 	neighbour105IntentionalPacketDropping 	0
scalar BMacTest.node[23].nic.ids 	neighbour106PacketsReceived 	0
scalar BMacTest.node[23].nic.ids 	neighbour106PacketsForwarded 	0
scalar BMacTest.node[23].nic.ids 	neighbour106IntentionalPacketDropping 	0
scalar BMacTest.node[23].nic.ids 	neighbour108PacketsReceived 	6
scalar BMacTest.node[23].nic.ids 	neighbour108PacketsForwarded 	6
scalar BMacTest.node[23].nic.ids 	neighbour108IntentionalPacketDropping 	0
scalar BMacTest.node[23].nic.ids 	neighbour116PacketsReceived 	0
scalar BMacTest.node[23].nic.ids 	neighbour116PacketsForwarded 	0
scalar BMacTest.node[23].nic.ids 	neighbour116IntentionalPacketDropping 	0
scalar BMacTest.node[23].nic.ids 	neighbour122PacketsReceived 	0
scalar BMacTest.node[23].nic.ids 	neighbour122PacketsForwarded 	0
scalar BMacTest.node[23].nic.ids 	neighbour122IntentionalPacketDropping 	0
scalar BMacTest.node[23].nic.ids 	neighbour157PacketsReceived 	0
[...]
scalar BMacTest.node[245].nic.ids 	neighbour122PacketsReceived 	0
scalar BMacTest.node[245].nic.ids 	neighbour122PacketsForwarded 	0
scalar BMacTest.node[245].nic.ids 	neighbour122IntentionalPacketDropping 	0
scalar BMacTest.node[245].nic.ids 	neighbour148PacketsReceived 	0
scalar BMacTest.node[245].nic.ids 	neighbour148PacketsForwarded 	0
scalar BMacTest.node[245].nic.ids 	neighbour148IntentionalPacketDropping 	0
scalar BMacTest.node[245].nic.ids 	neighbour162PacketsReceived 	0
scalar BMacTest.node[245].nic.ids 	neighbour162PacketsForwarded 	0
scalar BMacTest.node[245].nic.ids 	neighbour162IntentionalPacketDropping 	0
scalar BMacTest.node[245].nic.ids 	neighbour176PacketsReceived 	0
scalar BMacTest.node[245].nic.ids 	neighbour176PacketsForwarded 	0
scalar BMacTest.node[245].nic.ids 	neighbour176IntentionalPacketDropping 	0.5
scalar BMacTest.node[245].nic.ids 	neighbour185PacketsReceived 	1
scalar BMacTest.node[245].nic.ids 	neighbour185PacketsForwarded 	1
scalar BMacTest.node[245].nic.ids 	neighbour185IntentionalPacketDropping 	0
scalar BMacTest.node[245].nic.ids 	neighbour190PacketsReceived 	1
scalar BMacTest.node[245].nic.ids 	neighbour190PacketsForwarded 	1
scalar BMacTest.node[245].nic.ids 	neighbour190IntentionalPacketDropping 	0
scalar BMacTest.node[245].nic.ids 	data_packets_intercepted 	43
scalar BMacTest.node[245].nic.ids 	data_packets_me_to_somebody 	0
scalar BMacTest.node[245].nic.ids 	data_packets_somebody_to_me 	0
scalar BMacTest.node[245].nic.ids 	data_packets_somebody_to_somebody 	43
scalar BMacTest.node[245].netwl 	nbPacketsForwarded 	0
scalar BMacTest.node[245].netwl 	nbPacketsReceived 	0
scalar BMacTest.node[245].netwl 	nbPacketsSent 	0
scalar BMacTest.node[245].netwl 	nbPacketsDropped 	0
scalar BMacTest.node[246].nic.ids 	notAffectedByHostState 	0
scalar BMacTest.node[246].nic.ids 	stats 	1
scalar BMacTest.node[246].nic.ids 	debug 	0
scalar BMacTest.node[246].nic.ids 	maxMonitoredNodes 	250
scalar BMacTest.node[246].nic.ids 	fwdBufferSize 	100
scalar BMacTest.node[246].nic.ids 	fwdMinPacketsReceived 	0
scalar BMacTest.node[246].nic.ids 	fwdDetectionThreshold 	0.5
scalar BMacTest.node[246].nic.ids 	memIDSEntry 	8
scalar BMacTest.node[246].nic.ids 	memBufferEntry 	16
scalar BMacTest.node[246].nic.ids 	maxDistance 	999999
scalar BMacTest.node[246].nic.ids 	fwdPacketTimeout 	999999
scalar BMacTest.node[246].nic.ids 	neighbour8PacketsReceived 	2
scalar BMacTest.node[246].nic.ids 	neighbour8PacketsForwarded 	2
scalar BMacTest.node[246].nic.ids 	neighbour8IntentionalPacketDropping 	0
scalar BMacTest.node[246].nic.ids 	neighbour9PacketsReceived 	0
scalar BMacTest.node[246].nic.ids 	neighbour9PacketsForwarded 	0
scalar BMacTest.node[246].nic.ids 	neighbour9IntentionalPacketDropping 	0
scalar BMacTest.node[246].nic.ids 	neighbour12PacketsReceived 	0
scalar BMacTest.node[246].nic.ids 	neighbour12PacketsForwarded 	0
scalar BMacTest.node[246].nic.ids 	neighbour12IntentionalPacketDropping 	0
scalar BMacTest.node[246].nic.ids 	neighbour19PacketsReceived 	0
scalar BMacTest.node[246].nic.ids 	neighbour19PacketsForwarded 	0
scalar BMacTest.node[246].nic.ids 	neighbour19IntentionalPacketDropping 	0
scalar BMacTest.node[246].nic.ids 	neighbour49PacketsReceived 	0
scalar BMacTest.node[246].nic.ids 	neighbour49PacketsForwarded 	0
scalar BMacTest.node[246].nic.ids 	neighbour49IntentionalPacketDropping 	0
scalar BMacTest.node[246].nic.ids 	neighbour54PacketsReceived 	1
scalar BMacTest.node[246].nic.ids 	neighbour54PacketsForwarded 	1
scalar BMacTest.node[246].nic.ids 	neighbour54IntentionalPacketDropping 	0
scalar BMacTest.node[246].nic.ids 	neighbour82PacketsReceived 	0
scalar BMacTest.node[246].nic.ids 	neighbour82PacketsForwarded 	0
scalar BMacTest.node[246].nic.ids 	neighbour82IntentionalPacketDropping 	0
scalar BMacTest.node[246].nic.ids 	neighbour90PacketsReceived 	0
scalar BMacTest.node[246].nic.ids 	neighbour90PacketsForwarded 	0
scalar BMacTest.node[246].nic.ids 	neighbour90IntentionalPacketDropping 	0
scalar BMacTest.node[246].nic.ids 	neighbour108PacketsReceived 	1
scalar BMacTest.node[246].nic.ids 	neighbour108PacketsForwarded 	0
scalar BMacTest.node[246].nic.ids 	neighbour108IntentionalPacketDropping 	0
scalar BMacTest.node[246].nic.ids 	neighbour116PacketsReceived 	0
scalar BMacTest.node[246].nic.ids 	neighbour116PacketsForwarded 	0
scalar BMacTest.node[246].nic.ids 	neighbour116IntentionalPacketDropping 	0
scalar BMacTest.node[246].nic.ids 	neighbour122PacketsReceived 	1
scalar BMacTest.node[246].nic.ids 	neighbour122PacketsForwarded 	1
scalar BMacTest.node[246].nic.ids 	neighbour122IntentionalPacketDropping 	0
scalar BMacTest.node[246].nic.ids 	neighbour163PacketsReceived 	0
scalar BMacTest.node[246].nic.ids 	neighbour163PacketsForwarded 	0
scalar BMacTest.node[246].nic.ids 	neighbour163IntentionalPacketDropping 	0
scalar BMacTest.node[246].nic.ids 	neighbour182PacketsReceived 	0
scalar BMacTest.node[246].nic.ids 	neighbour182PacketsForwarded 	0
scalar BMacTest.node[246].nic.ids 	neighbour182IntentionalPacketDropping 	0
scalar BMacTest.node[246].nic.ids 	neighbour186PacketsReceived 	0
scalar BMacTest.node[246].nic.ids 	neighbour186PacketsForwarded 	0
scalar BMacTest.node[246].nic.ids 	neighbour186IntentionalPacketDropping 	0
scalar BMacTest.node[246].nic.ids 	neighbour206PacketsReceived 	6
scalar BMacTest.node[246].nic.ids 	neighbour206PacketsForwarded 	2
scalar BMacTest.node[246].nic.ids 	neighbour206IntentionalPacketDropping 	0.5
scalar BMacTest.node[246].nic.ids 	neighbour239PacketsReceived 	2
scalar BMacTest.node[246].nic.ids 	neighbour239PacketsForwarded 	2
scalar BMacTest.node[246].nic.ids 	neighbour239IntentionalPacketDropping 	0
scalar BMacTest.node[246].nic.ids 	neighbour241PacketsReceived 	0
scalar BMacTest.node[246].nic.ids 	neighbour241PacketsForwarded 	0
scalar BMacTest.node[246].nic.ids 	neighbour241IntentionalPacketDropping 	0
scalar BMacTest.node[246].nic.ids 	data_packets_intercepted 	36
scalar BMacTest.node[246].nic.ids 	data_packets_me_to_somebody 	1
scalar BMacTest.node[246].nic.ids 	data_packets_somebody_to_me 	1
scalar BMacTest.node[246].nic.ids 	data_packets_somebody_to_somebody 	34
scalar BMacTest.node[246].netwl 	nbPacketsForwarded 	1
scalar BMacTest.node[246].netwl 	nbPacketsReceived 	1
scalar BMacTest.node[246].netwl 	nbPacketsSent 	0
scalar BMacTest.node[246].netwl 	nbPacketsDropped 	0
scalar BMacTest.node[247].nic.ids 	notAffectedByHostState 	0
scalar BMacTest.node[247].nic.ids 	stats 	1
scalar BMacTest.node[247].nic.ids 	debug 	0
scalar BMacTest.node[247].nic.ids 	maxMonitoredNodes 	250
scalar BMacTest.node[247].nic.ids 	fwdBufferSize 	100
scalar BMacTest.node[247].nic.ids 	fwdMinPacketsReceived 	0
scalar BMacTest.node[247].nic.ids 	fwdDetectionThreshold 	0.5
scalar BMacTest.node[247].nic.ids 	memIDSEntry 	8
scalar BMacTest.node[247].nic.ids 	memBufferEntry 	16
scalar BMacTest.node[247].nic.ids 	maxDistance 	999999
scalar BMacTest.node[247].nic.ids 	fwdPacketTimeout 	999999
scalar BMacTest.node[247].nic.ids 	neighbour16PacketsReceived 	0
scalar BMacTest.node[247].nic.ids 	neighbour16PacketsForwarded 	0
scalar BMacTest.node[247].nic.ids 	neighbour16IntentionalPacketDropping 	0
scalar BMacTest.node[247].nic.ids 	neighbour71PacketsReceived 	1
scalar BMacTest.node[247].nic.ids 	neighbour71PacketsForwarded 	1
scalar BMacTest.node[247].nic.ids 	neighbour71IntentionalPacketDropping 	0
scalar BMacTest.node[247].nic.ids 	neighbour169PacketsReceived 	0
scalar BMacTest.node[247].nic.ids 	neighbour169PacketsForwarded 	0
scalar BMacTest.node[247].nic.ids 	neighbour169IntentionalPacketDropping 	0
scalar BMacTest.node[247].nic.ids 	neighbour170PacketsReceived 	0
scalar BMacTest.node[247].nic.ids 	neighbour170PacketsForwarded 	0
scalar BMacTest.node[247].nic.ids 	neighbour170IntentionalPacketDropping 	0
scalar BMacTest.node[247].nic.ids 	data_packets_intercepted 	4
scalar BMacTest.node[247].nic.ids 	data_packets_me_to_somebody 	0
scalar BMacTest.node[247].nic.ids 	data_packets_somebody_to_me 	0
scalar BMacTest.node[247].nic.ids 	data_packets_somebody_to_somebody 	4
scalar BMacTest.node[247].netwl 	nbPacketsForwarded 	0
scalar BMacTest.node[247].netwl 	nbPacketsReceived 	0
scalar BMacTest.node[247].netwl 	nbPacketsSent 	0
scalar BMacTest.node[247].netwl 	nbPacketsDropped 	0
scalar BMacTest.node[248].nic.ids 	notAffectedByHostState 	0
scalar BMacTest.node[248].nic.ids 	stats 	1
scalar BMacTest.node[248].nic.ids 	debug 	0
scalar BMacTest.node[248].nic.ids 	maxMonitoredNodes 	250
scalar BMacTest.node[248].nic.ids 	fwdBufferSize 	100
scalar BMacTest.node[248].nic.ids 	fwdMinPacketsReceived 	0
scalar BMacTest.node[248].nic.ids 	fwdDetectionThreshold 	0.5
scalar BMacTest.node[248].nic.ids 	memIDSEntry 	8
scalar BMacTest.node[248].nic.ids 	memBufferEntry 	16
scalar BMacTest.node[248].nic.ids 	maxDistance 	999999
scalar BMacTest.node[248].nic.ids 	fwdPacketTimeout 	999999
scalar BMacTest.node[248].nic.ids 	neighbour46PacketsReceived 	0
scalar BMacTest.node[248].nic.ids 	neighbour46PacketsForwarded 	0
scalar BMacTest.node[248].nic.ids 	neighbour46IntentionalPacketDropping 	0
scalar BMacTest.node[248].nic.ids 	neighbour49PacketsReceived 	1
scalar BMacTest.node[248].nic.ids 	neighbour49PacketsForwarded 	1
scalar BMacTest.node[248].nic.ids 	neighbour49IntentionalPacketDropping 	0
scalar BMacTest.node[248].nic.ids 	neighbour54PacketsReceived 	0
scalar BMacTest.node[248].nic.ids 	neighbour54PacketsForwarded 	0
scalar BMacTest.node[248].nic.ids 	neighbour54IntentionalPacketDropping 	0
scalar BMacTest.node[248].nic.ids 	neighbour105PacketsReceived 	0
scalar BMacTest.node[248].nic.ids 	neighbour105PacketsForwarded 	0
scalar BMacTest.node[248].nic.ids 	neighbour105IntentionalPacketDropping 	0
scalar BMacTest.node[248].nic.ids 	neighbour122PacketsReceived 	1
scalar BMacTest.node[248].nic.ids 	neighbour122PacketsForwarded 	1
scalar BMacTest.node[248].nic.ids 	neighbour122IntentionalPacketDropping 	0
scalar BMacTest.node[248].nic.ids 	neighbour124PacketsReceived 	0
scalar BMacTest.node[248].nic.ids 	neighbour124PacketsForwarded 	0
scalar BMacTest.node[248].nic.ids 	neighbour124IntentionalPacketDropping 	0
scalar BMacTest.node[248].nic.ids 	neighbour157PacketsReceived 	0
scalar BMacTest.node[248].nic.ids 	neighbour157PacketsForwarded 	0
scalar BMacTest.node[248].nic.ids 	neighbour157IntentionalPacketDropping 	0
scalar BMacTest.node[248].nic.ids 	neighbour163PacketsReceived 	1
scalar BMacTest.node[248].nic.ids 	neighbour163PacketsForwarded 	1
scalar BMacTest.node[248].nic.ids 	neighbour163IntentionalPacketDropping 	0
scalar BMacTest.node[248].nic.ids 	neighbour165PacketsReceived 	1
scalar BMacTest.node[248].nic.ids 	neighbour165PacketsForwarded 	1
scalar BMacTest.node[248].nic.ids 	neighbour165IntentionalPacketDropping 	0
scalar BMacTest.node[248].nic.ids 	neighbour186PacketsReceived 	0
scalar BMacTest.node[248].nic.ids 	neighbour186PacketsForwarded 	0
scalar BMacTest.node[248].nic.ids 	neighbour186IntentionalPacketDropping 	0
scalar BMacTest.node[248].nic.ids 	neighbour239PacketsReceived 	0
scalar BMacTest.node[248].nic.ids 	neighbour239PacketsForwarded 	0
scalar BMacTest.node[248].nic.ids 	neighbour239IntentionalPacketDropping 	0
scalar BMacTest.node[248].nic.ids 	data_packets_intercepted 	14
scalar BMacTest.node[248].nic.ids 	data_packets_me_to_somebody 	0
scalar BMacTest.node[248].nic.ids 	data_packets_somebody_to_me 	0
scalar BMacTest.node[248].nic.ids 	data_packets_somebody_to_somebody 	14
scalar BMacTest.node[248].netwl 	nbPacketsForwarded 	0
scalar BMacTest.node[248].netwl 	nbPacketsReceived 	0
scalar BMacTest.node[248].netwl 	nbPacketsSent 	0
scalar BMacTest.node[248].netwl 	nbPacketsDropped 	0
scalar BMacTest.node[249].nic.ids 	notAffectedByHostState 	0
scalar BMacTest.node[249].nic.ids 	stats 	1
scalar BMacTest.node[249].nic.ids 	debug 	0
scalar BMacTest.node[249].nic.ids 	maxMonitoredNodes 	250
scalar BMacTest.node[249].nic.ids 	fwdBufferSize 	100
scalar BMacTest.node[249].nic.ids 	fwdMinPacketsReceived 	0
scalar BMacTest.node[249].nic.ids 	fwdDetectionThreshold 	0.5
scalar BMacTest.node[249].nic.ids 	memIDSEntry 	8
scalar BMacTest.node[249].nic.ids 	memBufferEntry 	16
scalar BMacTest.node[249].nic.ids 	maxDistance 	999999
scalar BMacTest.node[249].nic.ids 	fwdPacketTimeout 	999999
scalar BMacTest.node[249].nic.ids 	neighbour22PacketsReceived 	0
scalar BMacTest.node[249].nic.ids 	neighbour22PacketsForwarded 	0
scalar BMacTest.node[249].nic.ids 	neighbour22IntentionalPacketDropping 	0
scalar BMacTest.node[249].nic.ids 	neighbour31PacketsReceived 	2
scalar BMacTest.node[249].nic.ids 	neighbour31PacketsForwarded 	2
scalar BMacTest.node[249].nic.ids 	neighbour31IntentionalPacketDropping 	0
scalar BMacTest.node[249].nic.ids 	neighbour33PacketsReceived 	1
scalar BMacTest.node[249].nic.ids 	neighbour33PacketsForwarded 	1
scalar BMacTest.node[249].nic.ids 	neighbour33IntentionalPacketDropping 	0
scalar BMacTest.node[249].nic.ids 	neighbour44PacketsReceived 	0
scalar BMacTest.node[249].nic.ids 	neighbour44PacketsForwarded 	0
scalar BMacTest.node[249].nic.ids 	neighbour44IntentionalPacketDropping 	0
scalar BMacTest.node[249].nic.ids 	neighbour62PacketsReceived 	0
scalar BMacTest.node[249].nic.ids 	neighbour62PacketsForwarded 	0
scalar BMacTest.node[249].nic.ids 	neighbour62IntentionalPacketDropping 	0
scalar BMacTest.node[249].nic.ids 	neighbour85PacketsReceived 	1
scalar BMacTest.node[249].nic.ids 	neighbour85PacketsForwarded 	1
scalar BMacTest.node[249].nic.ids 	neighbour85IntentionalPacketDropping 	0
scalar BMacTest.node[249].nic.ids 	neighbour107PacketsReceived 	0
scalar BMacTest.node[249].nic.ids 	neighbour107PacketsForwarded 	0
scalar BMacTest.node[249].nic.ids 	neighbour107IntentionalPacketDropping 	0
scalar BMacTest.node[249].nic.ids 	neighbour119PacketsReceived 	0
scalar BMacTest.node[249].nic.ids 	neighbour119PacketsForwarded 	0
scalar BMacTest.node[249].nic.ids 	neighbour119IntentionalPacketDropping 	0
scalar BMacTest.node[249].nic.ids 	neighbour181PacketsReceived 	2
scalar BMacTest.node[249].nic.ids 	neighbour181PacketsForwarded 	2
scalar BMacTest.node[249].nic.ids 	neighbour181IntentionalPacketDropping 	0
scalar BMacTest.node[249].nic.ids 	neighbour193PacketsReceived 	0
scalar BMacTest.node[249].nic.ids 	neighbour193PacketsForwarded 	0
scalar BMacTest.node[249].nic.ids 	neighbour193IntentionalPacketDropping 	0
scalar BMacTest.node[249].nic.ids 	neighbour211PacketsReceived 	0
scalar BMacTest.node[249].nic.ids 	neighbour211PacketsForwarded 	0
scalar BMacTest.node[249].nic.ids 	neighbour211IntentionalPacketDropping 	0
scalar BMacTest.node[249].nic.ids 	data_packets_intercepted 	21
scalar BMacTest.node[249].nic.ids 	data_packets_me_to_somebody 	1
scalar BMacTest.node[249].nic.ids 	data_packets_somebody_to_me 	0
scalar BMacTest.node[249].nic.ids 	data_packets_somebody_to_somebody 	20
scalar BMacTest.node[249].netwl 	nbPacketsForwarded 	0
scalar BMacTest.node[249].netwl 	nbPacketsReceived 	0
scalar BMacTest.node[249].netwl 	nbPacketsSent 	1
scalar BMacTest.node[249].netwl 	nbPacketsDropped 	0
scalar BMacTest.node[250].nic.ids 	notAffectedByHostState 	0
scalar BMacTest.node[250].nic.ids 	stats 	1
scalar BMacTest.node[250].nic.ids 	debug 	0
scalar BMacTest.node[250].nic.ids 	maxMonitoredNodes 	250
scalar BMacTest.node[250].nic.ids 	fwdBufferSize 	100
scalar BMacTest.node[250].nic.ids 	fwdMinPacketsReceived 	0
scalar BMacTest.node[250].nic.ids 	fwdDetectionThreshold 	0.5
scalar BMacTest.node[250].nic.ids 	memIDSEntry 	8
scalar BMacTest.node[250].nic.ids 	memBufferEntry 	16
scalar BMacTest.node[250].nic.ids 	maxDistance 	999999
scalar BMacTest.node[250].nic.ids 	fwdPacketTimeout 	999999
scalar BMacTest.node[250].nic.ids 	neighbour8PacketsReceived 	6
scalar BMacTest.node[250].nic.ids 	neighbour8PacketsForwarded 	5
scalar BMacTest.node[250].nic.ids 	neighbour8IntentionalPacketDropping 	0
scalar BMacTest.node[250].nic.ids 	neighbour19PacketsReceived 	4
scalar BMacTest.node[250].nic.ids 	neighbour19PacketsForwarded 	4
scalar BMacTest.node[250].nic.ids 	neighbour19IntentionalPacketDropping 	0
scalar BMacTest.node[250].nic.ids 	neighbour27PacketsReceived 	1
scalar BMacTest.node[250].nic.ids 	neighbour27PacketsForwarded 	1
scalar BMacTest.node[250].nic.ids 	neighbour27IntentionalPacketDropping 	0
scalar BMacTest.node[250].nic.ids 	neighbour54PacketsReceived 	1
scalar BMacTest.node[250].nic.ids 	neighbour54PacketsForwarded 	1
scalar BMacTest.node[250].nic.ids 	neighbour54IntentionalPacketDropping 	0
scalar BMacTest.node[250].nic.ids 	neighbour70PacketsReceived 	0
scalar BMacTest.node[250].nic.ids 	neighbour70PacketsForwarded 	0
scalar BMacTest.node[250].nic.ids 	neighbour70IntentionalPacketDropping 	0
scalar BMacTest.node[250].nic.ids 	neighbour87PacketsReceived 	0
scalar BMacTest.node[250].nic.ids 	neighbour87PacketsForwarded 	0
scalar BMacTest.node[250].nic.ids 	neighbour87IntentionalPacketDropping 	0
scalar BMacTest.node[250].nic.ids 	neighbour90PacketsReceived 	0
scalar BMacTest.node[250].nic.ids 	neighbour90PacketsForwarded 	0
scalar BMacTest.node[250].nic.ids 	neighbour90IntentionalPacketDropping 	0
scalar BMacTest.node[250].nic.ids 	neighbour108PacketsReceived 	2
scalar BMacTest.node[250].nic.ids 	neighbour108PacketsForwarded 	2
scalar BMacTest.node[250].nic.ids 	neighbour108IntentionalPacketDropping 	0
scalar BMacTest.node[250].nic.ids 	neighbour113PacketsReceived 	0
scalar BMacTest.node[250].nic.ids 	neighbour113PacketsForwarded 	0
scalar BMacTest.node[250].nic.ids 	neighbour113IntentionalPacketDropping 	0
scalar BMacTest.node[250].nic.ids 	neighbour116PacketsReceived 	1
scalar BMacTest.node[250].nic.ids 	neighbour116PacketsForwarded 	1
scalar BMacTest.node[250].nic.ids 	neighbour116IntentionalPacketDropping 	0
scalar BMacTest.node[250].nic.ids 	neighbour122PacketsReceived 	0
scalar BMacTest.node[250].nic.ids 	neighbour122PacketsForwarded 	0
scalar BMacTest.node[250].nic.ids 	neighbour122IntentionalPacketDropping 	0
scalar BMacTest.node[250].nic.ids 	neighbour137PacketsReceived 	0
scalar BMacTest.node[250].nic.ids 	neighbour137PacketsForwarded 	0
scalar BMacTest.node[250].nic.ids 	neighbour137IntentionalPacketDropping 	0
scalar BMacTest.node[250].nic.ids 	neighbour206PacketsReceived 	3
scalar BMacTest.node[250].nic.ids 	neighbour206PacketsForwarded 	0
scalar BMacTest.node[250].nic.ids 	neighbour206IntentionalPacketDropping 	0.5
scalar BMacTest.node[250].nic.ids 	neighbour239PacketsReceived 	0
scalar BMacTest.node[250].nic.ids 	neighbour239PacketsForwarded 	0
scalar BMacTest.node[250].nic.ids 	neighbour239IntentionalPacketDropping 	0
scalar BMacTest.node[250].nic.ids 	neighbour241PacketsReceived 	0
scalar BMacTest.node[250].nic.ids 	neighbour241PacketsForwarded 	0
scalar BMacTest.node[250].nic.ids 	neighbour241IntentionalPacketDropping 	0
scalar BMacTest.node[250].nic.ids 	neighbour246PacketsReceived 	0
scalar BMacTest.node[250].nic.ids 	neighbour246PacketsForwarded 	0
scalar BMacTest.node[250].nic.ids 	neighbour246IntentionalPacketDropping 	0
scalar BMacTest.node[250].nic.ids 	data_packets_intercepted 	57
scalar BMacTest.node[250].nic.ids 	data_packets_me_to_somebody 	0
scalar BMacTest.node[250].nic.ids 	data_packets_somebody_to_me 	35
scalar BMacTest.node[250].nic.ids 	data_packets_somebody_to_somebody 	22
scalar BMacTest.node[250].netwl 	nbPacketsForwarded 	0
scalar BMacTest.node[250].netwl 	nbPacketsReceived 	35
scalar BMacTest.node[250].netwl 	nbPacketsSent 	0
scalar BMacTest.node[250].netwl 	nbPacketsDropped 	0
scalar BMacTest.node[250].appl 	"activity duration" 	7.350896283315
attr unit  s
scalar BMacTest.node[250].appl 	firstPacketGeneration 	0.092986298259
attr unit  s
scalar BMacTest.node[250].appl 	lastPacketReception 	7.443882581574
attr unit  s
scalar BMacTest.node[250].appl 	nbPacketsSent 	0
scalar BMacTest.node[250].appl 	nbPacketsReceived 	35
statistic BMacTest.node[250].appl 	latency
field count 35
field mean 0.018843428571429
field stddev 0.0070542194060414
field sum 0.65952
field sqrsum 0.0141195264
field min 0.0064
field max 0.03232
